5291
  -OEChem-01162405103D

 68 72  0     0  0  0  0  0  0999 V2000
   -0.8276    0.2486   -1.0418 O   0  0  0  0  0  0  0  0  0  0  0  0
    6.4576    0.2661   -0.6555 N   0  0  0  0  0  0  0  0  0  0  0  0
    8.5148   -0.1616    1.3305 N   0  0  0  0  0  0  0  0  0  0  0  0
   -0.1066   -1.8326   -0.2329 N   0  0  0  0  0  0  0  0  0  0  0  0
   -4.9447   -1.8876   -0.2704 N   0  0  0  0  0  0  0  0  0  0  0  0
   -4.3746    0.3576    0.1045 N   0  0  0  0  0  0  0  0  0  0  0  0
   -6.6079   -0.2578   -0.5599 N   0  0  0  0  0  0  0  0  0  0  0  0
   -2.8521    4.8337    0.2988 N   0  0  0  0  0  0  0  0  0  0  0  0
    6.1553    0.3240    0.7799 C   0  0  0  0  0  0  0  0  0  0  0  0
    7.8492    0.6633   -0.9021 C   0  0  0  0  0  0  0  0  0  0  0  0
    7.1228   -0.5578    1.5768 C   0  0  0  0  0  0  0  0  0  0  0  0
    8.8175   -0.2175   -0.1048 C   0  0  0  0  0  0  0  0  0  0  0  0
    5.5353    1.1080   -1.4148 C   0  0  0  0  0  0  0  0  0  0  0  0
    9.4364   -1.0051    2.0887 C   0  0  0  0  0  0  0  0  0  0  0  0
    4.1042    0.6761   -1.2347 C   0  0  0  0  0  0  0  0  0  0  0  0
    3.7827   -0.6720   -1.3051 C   0  0  0  0  0  0  0  0  0  0  0  0
    3.1263    1.6331   -1.0017 C   0  0  0  0  0  0  0  0  0  0  0  0
    2.4565   -1.0715   -1.1393 C   0  0  0  0  0  0  0  0  0  0  0  0
    1.8002    1.2338   -0.8357 C   0  0  0  0  0  0  0  0  0  0  0  0
    1.4653   -0.1185   -0.9046 C   0  0  0  0  0  0  0  0  0  0  0  0
    0.0830   -0.5355   -0.7298 C   0  0  0  0  0  0  0  0  0  0  0  0
   -1.3242   -2.5126    0.0151 C   0  0  0  0  0  0  0  0  0  0  0  0
   -3.7215   -2.5414   -0.0031 C   0  0  0  0  0  0  0  0  0  0  0  0
   -2.5228   -1.8710   -0.2463 C   0  0  0  0  0  0  0  0  0  0  0  0
   -3.7034   -3.8430    0.4979 C   0  0  0  0  0  0  0  0  0  0  0  0
   -1.2879   -3.8040    0.5124 C   0  0  0  0  0  0  0  0  0  0  0  0
   -2.4866   -4.4744    0.7558 C   0  0  0  0  0  0  0  0  0  0  0  0
   -4.9723   -4.5838    0.7689 C   0  0  0  0  0  0  0  0  0  0  0  0
   -5.3266   -0.5337   -0.2407 C   0  0  0  0  0  0  0  0  0  0  0  0
   -4.7751    1.6458    0.1230 C   0  0  0  0  0  0  0  0  0  0  0  0
   -3.7560    2.5992    0.4912 C   0  0  0  0  0  0  0  0  0  0  0  0
   -6.0569    2.0547   -0.1837 C   0  0  0  0  0  0  0  0  0  0  0  0
   -6.9398    1.0495   -0.5211 C   0  0  0  0  0  0  0  0  0  0  0  0
   -2.7243    2.2490    1.3556 C   0  0  0  0  0  0  0  0  0  0  0  0
   -3.7742    3.8929   -0.0052 C   0  0  0  0  0  0  0  0  0  0  0  0
   -1.7569    3.1894    1.6923 C   0  0  0  0  0  0  0  0  0  0  0  0
   -1.8648    4.4564    1.1418 C   0  0  0  0  0  0  0  0  0  0  0  0
    6.2161    1.3575    1.1487 H   0  0  0  0  0  0  0  0  0  0  0  0
    5.1467   -0.0373    1.0060 H   0  0  0  0  0  0  0  0  0  0  0  0
    8.0827    0.5537   -1.9681 H   0  0  0  0  0  0  0  0  0  0  0  0
    8.0090    1.7178   -0.6393 H   0  0  0  0  0  0  0  0  0  0  0  0
    6.8911   -0.4479    2.6432 H   0  0  0  0  0  0  0  0  0  0  0  0
    6.9627   -1.6124    1.3143 H   0  0  0  0  0  0  0  0  0  0  0  0
    8.7669   -1.2503   -0.4758 H   0  0  0  0  0  0  0  0  0  0  0  0
    9.8378    0.1434   -0.2827 H   0  0  0  0  0  0  0  0  0  0  0  0
    5.6549    2.1619   -1.1291 H   0  0  0  0  0  0  0  0  0  0  0  0
    5.7622    1.0411   -2.4869 H   0  0  0  0  0  0  0  0  0  0  0  0
   10.4708   -0.6770    1.9372 H   0  0  0  0  0  0  0  0  0  0  0  0
    9.3641   -2.0606    1.8025 H   0  0  0  0  0  0  0  0  0  0  0  0
    9.2357   -0.9248    3.1628 H   0  0  0  0  0  0  0  0  0  0  0  0
    4.5361   -1.4277   -1.5094 H   0  0  0  0  0  0  0  0  0  0  0  0
    3.3744    2.6892   -0.9456 H   0  0  0  0  0  0  0  0  0  0  0  0
    2.2390   -2.1304   -1.2426 H   0  0  0  0  0  0  0  0  0  0  0  0
    1.0439    1.9918   -0.6479 H   0  0  0  0  0  0  0  0  0  0  0  0
    0.7149   -2.3706    0.0288 H   0  0  0  0  0  0  0  0  0  0  0  0
   -2.5694   -0.8966   -0.6987 H   0  0  0  0  0  0  0  0  0  0  0  0
   -0.3457   -4.3050    0.7161 H   0  0  0  0  0  0  0  0  0  0  0  0
   -2.4543   -5.4884    1.1455 H   0  0  0  0  0  0  0  0  0  0  0  0
   -5.7332   -2.5044   -0.4357 H   0  0  0  0  0  0  0  0  0  0  0  0
   -5.6194   -4.0112    1.4417 H   0  0  0  0  0  0  0  0  0  0  0  0
   -4.7836   -5.5486    1.2524 H   0  0  0  0  0  0  0  0  0  0  0  0
   -5.5050   -4.7850   -0.1664 H   0  0  0  0  0  0  0  0  0  0  0  0
   -6.3940    3.0829   -0.1521 H   0  0  0  0  0  0  0  0  0  0  0  0
   -7.9712    1.2730   -0.7724 H   0  0  0  0  0  0  0  0  0  0  0  0
   -2.6516    1.2546    1.7888 H   0  0  0  0  0  0  0  0  0  0  0  0
   -4.5283    4.2446   -0.7026 H   0  0  0  0  0  0  0  0  0  0  0  0
   -0.9444    2.9389    2.3645 H   0  0  0  0  0  0  0  0  0  0  0  0
   -1.1356    5.2260    1.3726 H   0  0  0  0  0  0  0  0  0  0  0  0
  1 21  2  0  0  0  0
  2  9  1  0  0  0  0
  2 10  1  0  0  0  0
  2 13  1  0  0  0  0
  3 11  1  0  0  0  0
  3 12  1  0  0  0  0
  3 14  1  0  0  0  0
  4 21  1  0  0  0  0
  4 22  1  0  0  0  0
  4 55  1  0  0  0  0
  5 23  1  0  0  0  0
  5 29  1  0  0  0  0
  5 59  1  0  0  0  0
  6 29  1  0  0  0  0
  6 30  2  0  0  0  0
  7 29  2  0  0  0  0
  7 33  1  0  0  0  0
  8 35  1  0  0  0  0
  8 37  2  0  0  0  0
  9 11  1  0  0  0  0
  9 38  1  0  0  0  0
  9 39  1  0  0  0  0
 10 12  1  0  0  0  0
 10 40  1  0  0  0  0
 10 41  1  0  0  0  0
 11 42  1  0  0  0  0
 11 43  1  0  0  0  0
 12 44  1  0  0  0  0
 12 45  1  0  0  0  0
 13 15  1  0  0  0  0
 13 46  1  0  0  0  0
 13 47  1  0  0  0  0
 14 48  1  0  0  0  0
 14 49  1  0  0  0  0
 14 50  1  0  0  0  0
 15 16  2  0  0  0  0
 15 17  1  0  0  0  0
 16 18  1  0  0  0  0
 16 51  1  0  0  0  0
 17 19  2  0  0  0  0
 17 52  1  0  0  0  0
 18 20  2  0  0  0  0
 18 53  1  0  0  0  0
 19 20  1  0  0  0  0
 19 54  1  0  0  0  0
 20 21  1  0  0  0  0
 22 24  2  0  0  0  0
 22 26  1  0  0  0  0
 23 24  1  0  0  0  0
 23 25  2  0  0  0  0
 24 56  1  0  0  0  0
 25 27  1  0  0  0  0
 25 28  1  0  0  0  0
 26 27  2  0  0  0  0
 26 57  1  0  0  0  0
 27 58  1  0  0  0  0
 28 60  1  0  0  0  0
 28 61  1  0  0  0  0
 28 62  1  0  0  0  0
 30 31  1  0  0  0  0
 30 32  1  0  0  0  0
 31 34  1  0  0  0  0
 31 35  2  0  0  0  0
 32 33  2  0  0  0  0
 32 63  1  0  0  0  0
 33 64  1  0  0  0  0
 34 36  2  0  0  0  0
 34 65  1  0  0  0  0
 35 66  1  0  0  0  0
 36 37  1  0  0  0  0
 36 67  1  0  0  0  0
 37 68  1  0  0  0  0
M  END
> <PUBCHEM_COMPOUND_CID>
5291

> <PUBCHEM_CONFORMER_RMSD>
1

> <PUBCHEM_CONFORMER_DIVERSEORDER>
1
86
183
155
18
49
271
197
51
136
137
264
53
161
199
59
223
60
118
279
56
163
275
127
135
154
220
196
244
114
219
200
150
221
277
145
88
139
280
283
140
75
232
43
186
249
78
133
207
238
250
132
201
243
191
102
71
260
176
187
97
164
205
255
92
110
209
106
178
3
162
265
134
213
151
72
57
228
65
23
192
251
174
138
41
204
120
242
93
100
47
165
107
158
144
214
274
46
156
113
119
37
143
245
273
50
177
281
87
45
227
152
123
224
35
171
278
32
95
44
58
235
188
80
89
52
141
157
248
284
175
40
190
246
193
166
236
74
230
101
179
215
268
14
83
131
104
239
167
267
19
234
85
254
5
229
206
36
269
153
160
194
129
108
79
68
226
67
173
122
266
55
17
180
142
61
54
112
257
76
94
225
64
272
211
185
217
121
149
195
20
169
98
147
261
105
262
259
48
212
22
27
263
222
208
128
148
117
168
33
170
15
130
25
62
90
84
256
21
4
276
241
126
270
38
282
26
124
202
252
2
109
198
111
172
77
115
28
10
181
182
203
6
231
237
31
184
69
146
13
81
247
159
82
91
210
258
7
189
29
253
70
66
218
42
103
30
11
233
73
96
63
39
240
34
16
99
9
216
12
125
116
8
24

> <PUBCHEM_MMFF94_PARTIAL_CHARGES>
51
1 -0.57
10 0.27
11 0.27
12 0.27
13 0.41
14 0.27
15 -0.14
16 -0.15
17 -0.15
18 -0.15
19 -0.15
2 -0.81
20 0.09
21 0.54
22 0.12
23 0.1
24 -0.15
25 -0.14
26 -0.15
27 -0.15
28 0.14
29 0.72
3 -0.81
30 0.31
32 -0.15
33 0.16
34 -0.15
35 0.16
36 -0.15
37 0.16
4 -0.55
5 -0.6
51 0.15
52 0.15
53 0.15
54 0.15
55 0.37
56 0.15
57 0.15
58 0.15
59 0.4
6 -0.62
63 0.15
64 0.15
65 0.15
66 0.15
67 0.15
68 0.15
7 -0.62
8 -0.62
9 0.27

> <PUBCHEM_EFFECTIVE_ROTOR_COUNT>
9.2

> <PUBCHEM_PHARMACOPHORE_FEATURES>
13
1 1 acceptor
1 2 cation
1 3 cation
1 4 donor
1 5 donor
1 6 acceptor
1 8 acceptor
4 5 6 7 29 cation
6 15 16 17 18 19 20 rings
6 2 3 9 10 11 12 rings
6 22 23 24 25 26 27 rings
6 6 7 29 30 32 33 rings
6 8 31 34 35 36 37 rings

> <PUBCHEM_HEAVY_ATOM_COUNT>
37

> <PUBCHEM_ATOM_DEF_STEREO_COUNT>
0

> <PUBCHEM_ATOM_UDEF_STEREO_COUNT>
0

> <PUBCHEM_BOND_DEF_STEREO_COUNT>
0

> <PUBCHEM_BOND_UDEF_STEREO_COUNT>
0

> <PUBCHEM_ISOTOPIC_ATOM_COUNT>
0

> <PUBCHEM_COMPONENT_COUNT>
1

> <PUBCHEM_CACTVS_TAUTO_COUNT>
6

> <PUBCHEM_CONFORMER_ID>
000014AB00000001

> <PUBCHEM_MMFF94_ENERGY>
127.2169

> <PUBCHEM_FEATURE_SELFOVERLAP>
65.975

> <PUBCHEM_SHAPE_FINGERPRINT>
100830 39 18410860958077041852
10951579 204 18197238974742643908
11007060 377 18269849622327105530
11136131 41 18044936770771598434
11621639 254 13254505501323013082
12104220 1 18410571777702331213
12107183 9 18186798084917518398
12128747 34 18130230354994079454
12144603 126 17894916257231727846
12202916 173 18131347506142367149
13947947 74 18272087151057125825
15021287 119 16732703852714263934
15328829 1 17967526866235903152
15351339 4 18338230471684522579
15400415 2 17762632689221619973
15419008 47 17703511077306660712
15776043 110 17967251962395703306
15890870 6 18335419046485918677
16112460 7 18114460063985995098
19611394 137 18201999945758235216
21133410 221 17845067714652049024
21639891 77 18130510820416437024
21792964 463 17608105478808388188
21859007 373 18202281416502593174
23522609 53 17605017917245182908
23569943 247 16661465382439943786
3504750 166 18339919432792631702
42626532 9 17974577093311653163
5047190 69 18343860034915745032
5085150 59 18342738516023217790
6201320 215 18059005086968776344
6371009 1 18409733936799028949
9981440 41 18191600661755950473

> <PUBCHEM_SHAPE_MULTIPOLES>
720.71
23.61
5.87
1.43
55.18
0.71
-0.37
0.19
-5.12
-14.21
-2.53
2.61
-0.31
-1.28

> <PUBCHEM_SHAPE_SELFOVERLAP>
1568.426

> <PUBCHEM_SHAPE_VOLUME>
390.1

> <PUBCHEM_COORDINATE_TYPE>
2
5
10

$$$$
9589
  -OEChem-01162405103D

 16 16  0     0  0  0  0  0  0999 V2000
    2.3958   -1.1449    0.0003 O   0  0  0  0  0  0  0  0  0  0  0  0
   -1.7525    1.2481    0.0000 N   0  0  0  0  0  0  0  0  0  0  0  0
    0.2818   -0.0583    0.0000 C   0  0  0  0  0  0  0  0  0  0  0  0
    1.7337   -0.0933   -0.0002 C   0  0  0  0  0  0  0  0  0  0  0  0
   -0.4634   -1.2322   -0.0001 C   0  0  0  0  0  0  0  0  0  0  0  0
   -0.4046    1.1454    0.0001 C   0  0  0  0  0  0  0  0  0  0  0  0
   -1.8524   -1.1675   -0.0001 C   0  0  0  0  0  0  0  0  0  0  0  0
    2.5047    1.2168   -0.0001 C   0  0  0  0  0  0  0  0  0  0  0  0
   -2.4432    0.0858    0.0001 C   0  0  0  0  0  0  0  0  0  0  0  0
    0.0187   -2.2060   -0.0003 H   0  0  0  0  0  0  0  0  0  0  0  0
    0.0941    2.1084    0.0001 H   0  0  0  0  0  0  0  0  0  0  0  0
    2.2777    1.7914   -0.9020 H   0  0  0  0  0  0  0  0  0  0  0  0
    3.5785    1.0029   -0.0006 H   0  0  0  0  0  0  0  0  0  0  0  0
    2.2783    1.7909    0.9022 H   0  0  0  0  0  0  0  0  0  0  0  0
   -2.4536   -2.0694   -0.0002 H   0  0  0  0  0  0  0  0  0  0  0  0
   -3.5231    0.1907    0.0001 H   0  0  0  0  0  0  0  0  0  0  0  0
  1  4  2  0  0  0  0
  2  6  1  0  0  0  0
  2  9  2  0  0  0  0
  3  4  1  0  0  0  0
  3  5  1  0  0  0  0
  3  6  2  0  0  0  0
  4  8  1  0  0  0  0
  5  7  2  0  0  0  0
  5 10  1  0  0  0  0
  6 11  1  0  0  0  0
  7  9  1  0  0  0  0
  7 15  1  0  0  0  0
  8 12  1  0  0  0  0
  8 13  1  0  0  0  0
  8 14  1  0  0  0  0
  9 16  1  0  0  0  0
M  END
> <PUBCHEM_COMPOUND_CID>
9589

> <PUBCHEM_CONFORMER_RMSD>
0.4

> <PUBCHEM_CONFORMER_DIVERSEORDER>
1
3
2
4

> <PUBCHEM_MMFF94_PARTIAL_CHARGES>
13
1 -0.57
10 0.15
11 0.15
15 0.15
16 0.15
2 -0.62
3 0.09
4 0.42
5 -0.15
6 0.16
7 -0.15
8 0.06
9 0.16

> <PUBCHEM_EFFECTIVE_ROTOR_COUNT>
1

> <PUBCHEM_PHARMACOPHORE_FEATURES>
3
1 1 acceptor
1 2 acceptor
6 2 3 5 6 7 9 rings

> <PUBCHEM_HEAVY_ATOM_COUNT>
9

> <PUBCHEM_ATOM_DEF_STEREO_COUNT>
0

> <PUBCHEM_ATOM_UDEF_STEREO_COUNT>
0

> <PUBCHEM_BOND_DEF_STEREO_COUNT>
0

> <PUBCHEM_BOND_UDEF_STEREO_COUNT>
0

> <PUBCHEM_ISOTOPIC_ATOM_COUNT>
0

> <PUBCHEM_COMPONENT_COUNT>
1

> <PUBCHEM_CACTVS_TAUTO_COUNT>
2

> <PUBCHEM_CONFORMER_ID>
0000257500000001

> <PUBCHEM_MMFF94_ENERGY>
23.5373

> <PUBCHEM_FEATURE_SELFOVERLAP>
15.223

> <PUBCHEM_SHAPE_FINGERPRINT>
10857977 72 18266451203620941009
12897270 3 18339363084055523380
14325111 11 18410856546865845857
14390081 3 18342174522366077304
16945 1 18266458895923237537
19973954 147 18411421704522180080
21040471 1 18338798896951054113
23552423 10 18261111880820362102
2748010 2 18410575088973870647
29004967 10 18262522631389779298
369184 2 18410572894335285531
5084963 1 18272084942250906368

> <PUBCHEM_SHAPE_MULTIPOLES>
174.37
3.62
1.51
0.6
0.95
0.02
0
0.17
0
0
0
-0.01
0
0

> <PUBCHEM_SHAPE_SELFOVERLAP>
360.543

> <PUBCHEM_SHAPE_VOLUME>
99.7

> <PUBCHEM_COORDINATE_TYPE>
2
5
10

$$$$
9869737
  -OEChem-01162405103D

 65 69  0     0  0  0  0  0  0999 V2000
    0.5454   -0.1892    1.0612 O   0  0  0  0  0  0  0  0  0  0  0  0
   -6.7152   -0.1049    0.3904 N   0  0  0  0  0  0  0  0  0  0  0  0
   -8.6825    0.3072   -1.6977 N   0  0  0  0  0  0  0  0  0  0  0  0
   -0.1096    1.8979    0.2126 N   0  0  0  0  0  0  0  0  0  0  0  0
    4.7278    1.8103    0.2749 N   0  0  0  0  0  0  0  0  0  0  0  0
    4.0914   -0.4227   -0.0641 N   0  0  0  0  0  0  0  0  0  0  0  0
    6.3393    0.1361    0.6009 N   0  0  0  0  0  0  0  0  0  0  0  0
    2.4356   -4.8539   -0.1947 N   0  0  0  0  0  0  0  0  0  0  0  0
   -8.1230   -0.4735    0.5878 C   0  0  0  0  0  0  0  0  0  0  0  0
   -6.3501   -0.2014   -1.0288 C   0  0  0  0  0  0  0  0  0  0  0  0
   -9.0375    0.3951   -0.2795 C   0  0  0  0  0  0  0  0  0  0  0  0
   -7.2750    0.6659   -1.8863 C   0  0  0  0  0  0  0  0  0  0  0  0
   -5.8397   -0.9400    1.2101 C   0  0  0  0  0  0  0  0  0  0  0  0
   -4.3960   -0.5313    1.0844 C   0  0  0  0  0  0  0  0  0  0  0  0
   -4.0594    0.8140    1.1354 C   0  0  0  0  0  0  0  0  0  0  0  0
   -3.4223   -1.5063    0.9183 C   0  0  0  0  0  0  0  0  0  0  0  0
   -2.7219    1.1922    1.0178 C   0  0  0  0  0  0  0  0  0  0  0  0
   -2.0848   -1.1282    0.8008 C   0  0  0  0  0  0  0  0  0  0  0  0
   -1.7347    0.2210    0.8506 C   0  0  0  0  0  0  0  0  0  0  0  0
   -0.3399    0.6157    0.7298 C   0  0  0  0  0  0  0  0  0  0  0  0
    1.1289    2.5381   -0.0383 C   0  0  0  0  0  0  0  0  0  0  0  0
    3.5259    2.4960   -0.0082 C   0  0  0  0  0  0  0  0  0  0  0  0
    2.3066    1.8659    0.2402 C   0  0  0  0  0  0  0  0  0  0  0  0
    3.5489    3.7890   -0.5311 C   0  0  0  0  0  0  0  0  0  0  0  0
    1.1334    3.8215   -0.5575 C   0  0  0  0  0  0  0  0  0  0  0  0
    2.3526    4.4518   -0.8057 C   0  0  0  0  0  0  0  0  0  0  0  0
    4.8405    4.4881   -0.8054 C   0  0  0  0  0  0  0  0  0  0  0  0
    5.0685    0.4452    0.2702 C   0  0  0  0  0  0  0  0  0  0  0  0
    4.4525   -1.7226   -0.0582 C   0  0  0  0  0  0  0  0  0  0  0  0
    3.4070   -2.6508   -0.4171 C   0  0  0  0  0  0  0  0  0  0  0  0
    5.7200   -2.1649    0.2615 C   0  0  0  0  0  0  0  0  0  0  0  0
    6.6314   -1.1811    0.5864 C   0  0  0  0  0  0  0  0  0  0  0  0
    2.3905   -2.2835   -1.2923 C   0  0  0  0  0  0  0  0  0  0  0  0
    3.3840   -3.9365    0.0995 C   0  0  0  0  0  0  0  0  0  0  0  0
    1.3969   -3.1996   -1.6191 C   0  0  0  0  0  0  0  0  0  0  0  0
    1.4642   -4.4605   -1.0487 C   0  0  0  0  0  0  0  0  0  0  0  0
   -8.4016   -0.3271    1.6384 H   0  0  0  0  0  0  0  0  0  0  0  0
   -8.2876   -1.5331    0.3495 H   0  0  0  0  0  0  0  0  0  0  0  0
   -5.3294    0.1462   -1.2192 H   0  0  0  0  0  0  0  0  0  0  0  0
   -6.4053   -1.2434   -1.3735 H   0  0  0  0  0  0  0  0  0  0  0  0
   -8.9948    1.4403    0.0524 H   0  0  0  0  0  0  0  0  0  0  0  0
  -10.0738    0.0625   -0.1545 H   0  0  0  0  0  0  0  0  0  0  0  0
   -7.0174    0.5311   -2.9426 H   0  0  0  0  0  0  0  0  0  0  0  0
   -7.1245    1.7277   -1.6530 H   0  0  0  0  0  0  0  0  0  0  0  0
   -5.9615   -1.9989    0.9446 H   0  0  0  0  0  0  0  0  0  0  0  0
   -6.1131   -0.8440    2.2691 H   0  0  0  0  0  0  0  0  0  0  0  0
   -9.2711    0.9416   -2.2364 H   0  0  0  0  0  0  0  0  0  0  0  0
   -4.8105    1.5841    1.2878 H   0  0  0  0  0  0  0  0  0  0  0  0
   -3.6823   -2.5602    0.8774 H   0  0  0  0  0  0  0  0  0  0  0  0
   -2.4957    2.2505    1.1061 H   0  0  0  0  0  0  0  0  0  0  0  0
   -1.3323   -1.9009    0.6659 H   0  0  0  0  0  0  0  0  0  0  0  0
   -0.9118    2.4538   -0.0702 H   0  0  0  0  0  0  0  0  0  0  0  0
    2.3219    0.8982    0.7088 H   0  0  0  0  0  0  0  0  0  0  0  0
    0.2075    4.3467   -0.7746 H   0  0  0  0  0  0  0  0  0  0  0  0
    2.3524    5.4597   -1.2122 H   0  0  0  0  0  0  0  0  0  0  0  0
    5.5339    2.4057    0.4336 H   0  0  0  0  0  0  0  0  0  0  0  0
    5.4750    3.8858   -1.4642 H   0  0  0  0  0  0  0  0  0  0  0  0
    4.6830    5.4498   -1.3061 H   0  0  0  0  0  0  0  0  0  0  0  0
    5.3727    4.6893    0.1301 H   0  0  0  0  0  0  0  0  0  0  0  0
    6.0259   -3.2031    0.2490 H   0  0  0  0  0  0  0  0  0  0  0  0
    7.6543   -1.4316    0.8468 H   0  0  0  0  0  0  0  0  0  0  0  0
    2.3498   -1.2943   -1.7414 H   0  0  0  0  0  0  0  0  0  0  0  0
    4.1237   -4.2995    0.8063 H   0  0  0  0  0  0  0  0  0  0  0  0
    0.5954   -2.9354   -2.2994 H   0  0  0  0  0  0  0  0  0  0  0  0
    0.7133   -5.2114   -1.2713 H   0  0  0  0  0  0  0  0  0  0  0  0
  1 20  2  0  0  0  0
  2  9  1  0  0  0  0
  2 10  1  0  0  0  0
  2 13  1  0  0  0  0
  3 11  1  0  0  0  0
  3 12  1  0  0  0  0
  3 47  1  0  0  0  0
  4 20  1  0  0  0  0
  4 21  1  0  0  0  0
  4 52  1  0  0  0  0
  5 22  1  0  0  0  0
  5 28  1  0  0  0  0
  5 56  1  0  0  0  0
  6 28  1  0  0  0  0
  6 29  2  0  0  0  0
  7 28  2  0  0  0  0
  7 32  1  0  0  0  0
  8 34  1  0  0  0  0
  8 36  2  0  0  0  0
  9 11  1  0  0  0  0
  9 37  1  0  0  0  0
  9 38  1  0  0  0  0
 10 12  1  0  0  0  0
 10 39  1  0  0  0  0
 10 40  1  0  0  0  0
 11 41  1  0  0  0  0
 11 42  1  0  0  0  0
 12 43  1  0  0  0  0
 12 44  1  0  0  0  0
 13 14  1  0  0  0  0
 13 45  1  0  0  0  0
 13 46  1  0  0  0  0
 14 15  2  0  0  0  0
 14 16  1  0  0  0  0
 15 17  1  0  0  0  0
 15 48  1  0  0  0  0
 16 18  2  0  0  0  0
 16 49  1  0  0  0  0
 17 19  2  0  0  0  0
 17 50  1  0  0  0  0
 18 19  1  0  0  0  0
 18 51  1  0  0  0  0
 19 20  1  0  0  0  0
 21 23  2  0  0  0  0
 21 25  1  0  0  0  0
 22 23  1  0  0  0  0
 22 24  2  0  0  0  0
 23 53  1  0  0  0  0
 24 26  1  0  0  0  0
 24 27  1  0  0  0  0
 25 26  2  0  0  0  0
 25 54  1  0  0  0  0
 26 55  1  0  0  0  0
 27 57  1  0  0  0  0
 27 58  1  0  0  0  0
 27 59  1  0  0  0  0
 29 30  1  0  0  0  0
 29 31  1  0  0  0  0
 30 33  1  0  0  0  0
 30 34  2  0  0  0  0
 31 32  2  0  0  0  0
 31 60  1  0  0  0  0
 32 61  1  0  0  0  0
 33 35  2  0  0  0  0
 33 62  1  0  0  0  0
 34 63  1  0  0  0  0
 35 36  1  0  0  0  0
 35 64  1  0  0  0  0
 36 65  1  0  0  0  0
M  END
> <PUBCHEM_COMPOUND_CID>
9869737

> <PUBCHEM_CONFORMER_RMSD>
1

> <PUBCHEM_CONFORMER_DIVERSEORDER>
1
37
148
236
167
42
234
114
99
237
253
154
171
137
117
194
202
259
165
102
53
190
182
138
177
65
87
196
208
41
155
185
219
81
213
24
198
201
142
40
131
174
193
258
235
103
70
195
94
231
39
125
176
172
111
96
175
209
210
20
109
69
147
197
8
257
51
18
128
140
119
252
217
67
255
189
121
163
184
118
159
88
133
32
63
112
186
13
212
101
84
106
245
85
66
168
166
204
34
178
149
91
3
181
169
44
248
183
54
120
205
243
50
158
36
130
48
76
123
21
30
74
113
134
216
9
52
108
260
192
143
199
27
191
35
229
92
47
49
4
203
238
179
135
80
57
145
180
62
251
115
19
230
2
240
221
232
15
127
124
226
139
211
129
151
146
93
72
59
215
228
29
233
89
38
56
246
73
90
160
206
79
187
214
152
225
220
156
223
164
173
25
200
107
14
100
249
17
256
71
16
82
33
122
239
110
162
153
222
250
136
11
207
104
95
227
46
241
150
26
31
244
254
97
55
132
144
224
105
22
188
45
98
28
12
83
64
126
161
116
58
170
75
242
68
86
61
23
218
247
43
10
157
78
77
7
141
60
6
5

> <PUBCHEM_MMFF94_PARTIAL_CHARGES>
51
1 -0.57
10 0.27
11 0.27
12 0.27
13 0.41
14 -0.14
15 -0.15
16 -0.15
17 -0.15
18 -0.15
19 0.09
2 -0.81
20 0.54
21 0.12
22 0.1
23 -0.15
24 -0.14
25 -0.15
26 -0.15
27 0.14
28 0.72
29 0.31
3 -0.9
31 -0.15
32 0.16
33 -0.15
34 0.16
35 -0.15
36 0.16
4 -0.55
47 0.36
48 0.15
49 0.15
5 -0.6
50 0.15
51 0.15
52 0.37
53 0.15
54 0.15
55 0.15
56 0.4
6 -0.62
60 0.15
61 0.15
62 0.15
63 0.15
64 0.15
65 0.15
7 -0.62
8 -0.62
9 0.27

> <PUBCHEM_EFFECTIVE_ROTOR_COUNT>
9.2

> <PUBCHEM_PHARMACOPHORE_FEATURES>
14
1 1 acceptor
1 2 cation
1 3 cation
1 3 donor
1 4 donor
1 5 donor
1 6 acceptor
1 8 acceptor
4 5 6 7 28 cation
6 14 15 16 17 18 19 rings
6 2 3 9 10 11 12 rings
6 21 22 23 24 25 26 rings
6 6 7 28 29 31 32 rings
6 8 30 33 34 35 36 rings

> <PUBCHEM_HEAVY_ATOM_COUNT>
36

> <PUBCHEM_ATOM_DEF_STEREO_COUNT>
0

> <PUBCHEM_ATOM_UDEF_STEREO_COUNT>
0

> <PUBCHEM_BOND_DEF_STEREO_COUNT>
0

> <PUBCHEM_BOND_UDEF_STEREO_COUNT>
0

> <PUBCHEM_ISOTOPIC_ATOM_COUNT>
0

> <PUBCHEM_COMPONENT_COUNT>
1

> <PUBCHEM_CACTVS_TAUTO_COUNT>
6

> <PUBCHEM_CONFORMER_ID>
009699A900000001

> <PUBCHEM_MMFF94_ENERGY>
120.7151

> <PUBCHEM_FEATURE_SELFOVERLAP>
71.05

> <PUBCHEM_SHAPE_FINGERPRINT>
11374522 175 18337387124770686723
11409948 41 18271509924463296543
11719270 70 18341614862188611497
11828532 37 17531259386907891579
11973864 48 18115029732276056771
12202916 173 18260545598632060298
12717326 120 15194420097462530645
12841400 136 18263652757608738859
12857493 111 18336543833416840325
1361 2 18412268358999248978
14117953 113 18412832382863312366
14725015 67 18261386716510649026
14918310 93 18187918461258879114
15119646 104 18131072615418761027
15328829 1 17418086625170171079
15351334 14 17968639576958219183
15400415 2 17906462373704400848
15419008 47 17749104470315296037
15439362 3 18117843415677677792
15484559 13 18339655524621902262
15927050 60 17907871939985872644
17852330 134 18195512716091758421
18365409 1 17845363513534458974
21133410 58 18335134302216896899
21859007 373 17603575323561061085
23559900 14 18340201990337705113
24771750 20 17971773291484599517
3633792 109 18410854331570050441
394071 54 18270414818733474771
4066623 53 18041278777206145485
4149490 64 18335709399128693811
4403749 210 17762058039998440888
44575985 19 18337685160935134259
5309563 4 18266747887815279280
6004065 56 18410293601102072523

> <PUBCHEM_SHAPE_MULTIPOLES>
700.13
21.48
5.99
1.31
48.88
0.24
0.36
-0.45
2.76
-13.52
2.45
1.84
-0.26
0.29

> <PUBCHEM_SHAPE_SELFOVERLAP>
1528.106

> <PUBCHEM_SHAPE_VOLUME>
376.7

> <PUBCHEM_COORDINATE_TYPE>
2
5
10

$$$$
4369496
  -OEChem-01162405103D

 65 69  0     0  0  0  0  0  0999 V2000
   -0.9540    0.0605   -1.0232 O   0  0  0  0  0  0  0  0  0  0  0  0
    6.3270    0.3541   -0.6690 N   0  0  0  0  0  0  0  0  0  0  0  0
    8.4049    0.0564    1.3190 N   0  0  0  0  0  0  0  0  0  0  0  0
   -0.1548   -1.9700   -0.1609 N   0  0  0  0  0  0  0  0  0  0  0  0
   -4.9949   -2.2163   -0.1625 N   0  0  0  0  0  0  0  0  0  0  0  0
   -4.5332    0.0637    0.1452 N   0  0  0  0  0  0  0  0  0  0  0  0
   -6.7394   -0.6789   -0.4780 N   0  0  0  0  0  0  0  0  0  0  0  0
   -3.2323    4.6130    0.2018 N   0  0  0  0  0  0  0  0  0  0  0  0
    6.0274    0.4403    0.7655 C   0  0  0  0  0  0  0  0  0  0  0  0
    7.7023    0.7948   -0.9324 C   0  0  0  0  0  0  0  0  0  0  0  0
    7.0292   -0.3834    1.5821 C   0  0  0  0  0  0  0  0  0  0  0  0
    8.7047   -0.0279   -0.1156 C   0  0  0  0  0  0  0  0  0  0  0  0
    5.3719    1.1406   -1.4470 C   0  0  0  0  0  0  0  0  0  0  0  0
    9.3594   -0.7319    2.0960 C   0  0  0  0  0  0  0  0  0  0  0  0
    3.9582    0.6620   -1.2490 C   0  0  0  0  0  0  0  0  0  0  0  0
    3.6860   -0.6984   -1.2812 C   0  0  0  0  0  0  0  0  0  0  0  0
    2.9469    1.5888   -1.0380 C   0  0  0  0  0  0  0  0  0  0  0  0
    2.3758   -1.1412   -1.0988 C   0  0  0  0  0  0  0  0  0  0  0  0
    1.6367    1.1461   -0.8555 C   0  0  0  0  0  0  0  0  0  0  0  0
    1.3512   -0.2188   -0.8859 C   0  0  0  0  0  0  0  0  0  0  0  0
   -0.0143   -0.6810   -0.6939 C   0  0  0  0  0  0  0  0  0  0  0  0
   -1.3459   -2.6869    0.1109 C   0  0  0  0  0  0  0  0  0  0  0  0
   -2.5680   -2.0961   -0.1605 C   0  0  0  0  0  0  0  0  0  0  0  0
   -3.7406   -2.8020    0.1087 C   0  0  0  0  0  0  0  0  0  0  0  0
   -1.2605   -3.9619    0.6431 C   0  0  0  0  0  0  0  0  0  0  0  0
   -3.6730   -4.0878    0.6450 C   0  0  0  0  0  0  0  0  0  0  0  0
   -2.4331   -4.6679    0.9122 C   0  0  0  0  0  0  0  0  0  0  0  0
   -5.4434   -0.8814   -0.1653 C   0  0  0  0  0  0  0  0  0  0  0  0
   -4.9967    1.3306    0.1331 C   0  0  0  0  0  0  0  0  0  0  0  0
   -4.0226    2.3428    0.4644 C   0  0  0  0  0  0  0  0  0  0  0  0
   -6.3001    1.6675   -0.1707 C   0  0  0  0  0  0  0  0  0  0  0  0
   -7.1352    0.6109   -0.4711 C   0  0  0  0  0  0  0  0  0  0  0  0
   -2.9667    2.0679    1.3268 C   0  0  0  0  0  0  0  0  0  0  0  0
   -4.1095    3.6199   -0.0667 C   0  0  0  0  0  0  0  0  0  0  0  0
   -2.0439    3.0637    1.6273 C   0  0  0  0  0  0  0  0  0  0  0  0
   -2.2196    4.3081    1.0440 C   0  0  0  0  0  0  0  0  0  0  0  0
    5.0335    0.0488    1.0057 H   0  0  0  0  0  0  0  0  0  0  0  0
    6.0517    1.4851    1.1057 H   0  0  0  0  0  0  0  0  0  0  0  0
    7.9360    0.6645   -1.9960 H   0  0  0  0  0  0  0  0  0  0  0  0
    7.8244    1.8613   -0.6991 H   0  0  0  0  0  0  0  0  0  0  0  0
    6.9068   -1.4501    1.3492 H   0  0  0  0  0  0  0  0  0  0  0  0
    6.7971   -0.2528    2.6462 H   0  0  0  0  0  0  0  0  0  0  0  0
    9.7106    0.3648   -0.3076 H   0  0  0  0  0  0  0  0  0  0  0  0
    8.6907   -1.0716   -0.4579 H   0  0  0  0  0  0  0  0  0  0  0  0
    5.5977    1.0526   -2.5179 H   0  0  0  0  0  0  0  0  0  0  0  0
    5.4539    2.2056   -1.1909 H   0  0  0  0  0  0  0  0  0  0  0  0
    9.1594   -0.6295    3.1684 H   0  0  0  0  0  0  0  0  0  0  0  0
    9.3247   -1.7968    1.8390 H   0  0  0  0  0  0  0  0  0  0  0  0
   10.3804   -0.3705    1.9310 H   0  0  0  0  0  0  0  0  0  0  0  0
    4.4658   -1.4314   -1.4680 H   0  0  0  0  0  0  0  0  0  0  0  0
    3.1564    2.6543   -1.0119 H   0  0  0  0  0  0  0  0  0  0  0  0
    2.1968   -2.2097   -1.1722 H   0  0  0  0  0  0  0  0  0  0  0  0
    0.8539    1.8809   -0.6853 H   0  0  0  0  0  0  0  0  0  0  0  0
    0.6868   -2.4705    0.1114 H   0  0  0  0  0  0  0  0  0  0  0  0
   -2.6553   -1.1337   -0.6331 H   0  0  0  0  0  0  0  0  0  0  0  0
   -0.3000   -4.4231    0.8551 H   0  0  0  0  0  0  0  0  0  0  0  0
   -4.5794   -4.6481    0.8600 H   0  0  0  0  0  0  0  0  0  0  0  0
   -2.3805   -5.6691    1.3300 H   0  0  0  0  0  0  0  0  0  0  0  0
   -5.7535   -2.8830   -0.2695 H   0  0  0  0  0  0  0  0  0  0  0  0
   -6.6873    2.6782   -0.1633 H   0  0  0  0  0  0  0  0  0  0  0  0
   -8.1786    0.7765   -0.7173 H   0  0  0  0  0  0  0  0  0  0  0  0
   -2.8408    1.0906    1.7860 H   0  0  0  0  0  0  0  0  0  0  0  0
   -4.8865    3.9147   -0.7652 H   0  0  0  0  0  0  0  0  0  0  0  0
   -1.2137    2.8721    2.2973 H   0  0  0  0  0  0  0  0  0  0  0  0
   -1.5273    5.1188    1.2460 H   0  0  0  0  0  0  0  0  0  0  0  0
  1 21  2  0  0  0  0
  2  9  1  0  0  0  0
  2 10  1  0  0  0  0
  2 13  1  0  0  0  0
  3 11  1  0  0  0  0
  3 12  1  0  0  0  0
  3 14  1  0  0  0  0
  4 21  1  0  0  0  0
  4 22  1  0  0  0  0
  4 54  1  0  0  0  0
  5 24  1  0  0  0  0
  5 28  1  0  0  0  0
  5 59  1  0  0  0  0
  6 28  1  0  0  0  0
  6 29  2  0  0  0  0
  7 28  2  0  0  0  0
  7 32  1  0  0  0  0
  8 34  1  0  0  0  0
  8 36  2  0  0  0  0
  9 11  1  0  0  0  0
  9 37  1  0  0  0  0
  9 38  1  0  0  0  0
 10 12  1  0  0  0  0
 10 39  1  0  0  0  0
 10 40  1  0  0  0  0
 11 41  1  0  0  0  0
 11 42  1  0  0  0  0
 12 43  1  0  0  0  0
 12 44  1  0  0  0  0
 13 15  1  0  0  0  0
 13 45  1  0  0  0  0
 13 46  1  0  0  0  0
 14 47  1  0  0  0  0
 14 48  1  0  0  0  0
 14 49  1  0  0  0  0
 15 16  2  0  0  0  0
 15 17  1  0  0  0  0
 16 18  1  0  0  0  0
 16 50  1  0  0  0  0
 17 19  2  0  0  0  0
 17 51  1  0  0  0  0
 18 20  2  0  0  0  0
 18 52  1  0  0  0  0
 19 20  1  0  0  0  0
 19 53  1  0  0  0  0
 20 21  1  0  0  0  0
 22 23  1  0  0  0  0
 22 25  2  0  0  0  0
 23 24  2  0  0  0  0
 23 55  1  0  0  0  0
 24 26  1  0  0  0  0
 25 27  1  0  0  0  0
 25 56  1  0  0  0  0
 26 27  2  0  0  0  0
 26 57  1  0  0  0  0
 27 58  1  0  0  0  0
 29 30  1  0  0  0  0
 29 31  1  0  0  0  0
 30 33  1  0  0  0  0
 30 34  2  0  0  0  0
 31 32  2  0  0  0  0
 31 60  1  0  0  0  0
 32 61  1  0  0  0  0
 33 35  2  0  0  0  0
 33 62  1  0  0  0  0
 34 63  1  0  0  0  0
 35 36  1  0  0  0  0
 35 64  1  0  0  0  0
 36 65  1  0  0  0  0
M  END
> <PUBCHEM_COMPOUND_CID>
4369496

> <PUBCHEM_CONFORMER_RMSD>
1

> <PUBCHEM_CONFORMER_DIVERSEORDER>
1
244
125
107
163
144
305
203
218
36
301
167
308
248
213
166
279
271
293
320
287
124
176
214
273
68
84
268
78
292
165
221
40
100
89
143
194
207
119
48
317
139
190
14
329
280
339
134
222
266
300
259
311
123
206
130
95
59
286
263
275
141
97
234
340
202
138
229
126
181
277
52
256
122
142
195
15
282
307
133
83
114
228
155
264
316
140
233
216
187
288
321
127
302
192
186
43
306
227
99
132
75
276
333
154
274
42
247
314
324
128
7
330
185
118
105
251
60
175
106
267
145
322
231
129
243
113
162
73
261
81
341
54
80
328
249
169
295
209
159
41
55
131
177
291
210
315
200
326
149
220
283
6
85
92
178
325
270
171
66
304
91
148
179
297
272
35
96
57
281
309
72
196
44
183
117
184
296
8
98
225
86
201
253
87
334
76
151
255
318
217
335
121
219
37
246
327
62
49
25
146
245
82
237
51
16
5
290
135
319
193
39
156
323
111
50
174
223
77
191
3
294
310
211
242
331
26
258
116
137
235
23
4
205
157
208
70
28
112
254
278
257
94
332
224
19
58
63
313
236
18
232
269
30
197
250
67
164
285
215
150
12
158
303
241
9
182
189
265
2
53
238
45
161
46
152
160
69
47
230
204
136
226
172
239
103
299
79
104
13
284
20
338
10
56
312
336
33
74
27
88
71
61
11
252
168
22
64
17
153
173
298
289
115
198
147
101
90
110
240
212
260
337
93
342
180
21
38
188
262
199
31
170
24
29
120
65
109
32
102
108
34

> <PUBCHEM_MMFF94_PARTIAL_CHARGES>
51
1 -0.57
10 0.27
11 0.27
12 0.27
13 0.41
14 0.27
15 -0.14
16 -0.15
17 -0.15
18 -0.15
19 -0.15
2 -0.81
20 0.09
21 0.54
22 0.12
23 -0.15
24 0.1
25 -0.15
26 -0.15
27 -0.15
28 0.72
29 0.31
3 -0.81
31 -0.15
32 0.16
33 -0.15
34 0.16
35 -0.15
36 0.16
4 -0.55
5 -0.6
50 0.15
51 0.15
52 0.15
53 0.15
54 0.37
55 0.15
56 0.15
57 0.15
58 0.15
59 0.4
6 -0.62
60 0.15
61 0.15
62 0.15
63 0.15
64 0.15
65 0.15
7 -0.62
8 -0.62
9 0.27

> <PUBCHEM_EFFECTIVE_ROTOR_COUNT>
9.2

> <PUBCHEM_PHARMACOPHORE_FEATURES>
13
1 1 acceptor
1 2 cation
1 3 cation
1 4 donor
1 5 donor
1 6 acceptor
1 8 acceptor
4 5 6 7 28 cation
6 15 16 17 18 19 20 rings
6 2 3 9 10 11 12 rings
6 22 23 24 25 26 27 rings
6 6 7 28 29 31 32 rings
6 8 30 33 34 35 36 rings

> <PUBCHEM_HEAVY_ATOM_COUNT>
36

> <PUBCHEM_ATOM_DEF_STEREO_COUNT>
0

> <PUBCHEM_ATOM_UDEF_STEREO_COUNT>
0

> <PUBCHEM_BOND_DEF_STEREO_COUNT>
0

> <PUBCHEM_BOND_UDEF_STEREO_COUNT>
0

> <PUBCHEM_ISOTOPIC_ATOM_COUNT>
0

> <PUBCHEM_COMPONENT_COUNT>
1

> <PUBCHEM_CACTVS_TAUTO_COUNT>
6

> <PUBCHEM_CONFORMER_ID>
0042AC5800000001

> <PUBCHEM_MMFF94_ENERGY>
123.0789

> <PUBCHEM_FEATURE_SELFOVERLAP>
65.975

> <PUBCHEM_SHAPE_FINGERPRINT>
100830 39 18410860958013770804
10580692 12 18410015434157573526
10951579 204 18196676033315808196
11007060 377 18269286680879307274
11136131 41 18044655304400685634
11621639 254 13398622892659089026
12104220 1 18410008836444268077
12107183 9 18186516622831023350
12128747 34 18202006486898046054
12144603 126 17894634790829134006
12717326 25 15791449327154580458
12788726 201 18411984659192620515
13560911 43 18261397775719509497
13947947 74 18271805684691331881
15021287 119 16732985331964777886
15328684 2 18188201019137301800
15328829 1 17967245399801589360
15351339 4 18410006603620254691
15400415 2 17762914159987804813
15419008 47 17704072919000335608
15776043 110 17967251975328032514
15890870 6 18335137588710059223
16112460 7 18114177498024333234
19611394 137 18202281425056241464
21133410 221 17773291604307373440
21859007 373 18202001049580076030
23522609 53 17605016826376230724
23569943 247 16588843747516306402
42626532 9 17974858572641372867
5047190 69 18343861138674808873
5085150 59 18342175574559569206
6201320 215 18130782314068207016
6299153 45 18114180822265216010
6371009 1 18409172099384464669
9981440 41 18263095323051831897

> <PUBCHEM_SHAPE_MULTIPOLES>
700.13
23.71
5.38
1.43
50.41
1.01
-0.35
-3.56
-5.16
-12.07
-2.19
2.7
-0.29
-1.38

> <PUBCHEM_SHAPE_SELFOVERLAP>
1525.542

> <PUBCHEM_SHAPE_VOLUME>
377.7

> <PUBCHEM_COORDINATE_TYPE>
2
5
10

$$$$
9965429
  -OEChem-01162405103D

 36 38  0     0  0  0  0  0  0999 V2000
   -1.7101   -1.5305    0.2026 N   0  0  0  0  0  0  0  0  0  0  0  0
    0.4953   -0.7456    0.0413 N   0  0  0  0  0  0  0  0  0  0  0  0
    0.0334   -3.0994    0.2716 N   0  0  0  0  0  0  0  0  0  0  0  0
   -2.0235    3.2409    1.0241 N   0  0  0  0  0  0  0  0  0  0  0  0
    4.8434    1.0994    0.3310 N   0  0  0  0  0  0  0  0  0  0  0  0
   -2.4477   -0.3286    0.1243 C   0  0  0  0  0  0  0  0  0  0  0  0
   -3.7284   -0.3123   -0.4282 C   0  0  0  0  0  0  0  0  0  0  0  0
   -1.8813    0.8513    0.6068 C   0  0  0  0  0  0  0  0  0  0  0  0
   -4.4427    0.8838   -0.4985 C   0  0  0  0  0  0  0  0  0  0  0  0
   -2.5956    2.0474    0.5366 C   0  0  0  0  0  0  0  0  0  0  0  0
   -3.8762    2.0636   -0.0162 C   0  0  0  0  0  0  0  0  0  0  0  0
   -0.3304   -1.8045    0.1706 C   0  0  0  0  0  0  0  0  0  0  0  0
   -4.3590   -1.5614   -0.9522 C   0  0  0  0  0  0  0  0  0  0  0  0
    1.8108   -1.0444    0.0139 C   0  0  0  0  0  0  0  0  0  0  0  0
    2.6938    0.0890   -0.1232 C   0  0  0  0  0  0  0  0  0  0  0  0
    2.3075   -2.3283    0.1088 C   0  0  0  0  0  0  0  0  0  0  0  0
    1.3631   -3.3259    0.2371 C   0  0  0  0  0  0  0  0  0  0  0  0
    2.2940    1.2317   -0.8080 C   0  0  0  0  0  0  0  0  0  0  0  0
    3.9674    0.0737    0.4232 C   0  0  0  0  0  0  0  0  0  0  0  0
    3.1670    2.3078   -0.9239 C   0  0  0  0  0  0  0  0  0  0  0  0
    4.4192    2.1925   -0.3418 C   0  0  0  0  0  0  0  0  0  0  0  0
   -0.9074    0.8666    1.0861 H   0  0  0  0  0  0  0  0  0  0  0  0
   -2.2689   -2.3775    0.1968 H   0  0  0  0  0  0  0  0  0  0  0  0
   -5.4417    0.9141   -0.9251 H   0  0  0  0  0  0  0  0  0  0  0  0
   -4.4428    2.9893   -0.0764 H   0  0  0  0  0  0  0  0  0  0  0  0
   -5.3182   -1.3575   -1.4407 H   0  0  0  0  0  0  0  0  0  0  0  0
   -4.5507   -2.2649   -0.1353 H   0  0  0  0  0  0  0  0  0  0  0  0
   -3.7150   -2.0366   -1.6998 H   0  0  0  0  0  0  0  0  0  0  0  0
    3.3593   -2.5808    0.0674 H   0  0  0  0  0  0  0  0  0  0  0  0
    1.6576   -4.3673    0.3130 H   0  0  0  0  0  0  0  0  0  0  0  0
    1.3128    1.3098   -1.2694 H   0  0  0  0  0  0  0  0  0  0  0  0
   -2.5411    4.1082    0.9722 H   0  0  0  0  0  0  0  0  0  0  0  0
   -1.0939    3.2314    1.4222 H   0  0  0  0  0  0  0  0  0  0  0  0
    4.3529   -0.7664    0.9927 H   0  0  0  0  0  0  0  0  0  0  0  0
    2.8775    3.2074   -1.4547 H   0  0  0  0  0  0  0  0  0  0  0  0
    5.1374    3.0034   -0.4046 H   0  0  0  0  0  0  0  0  0  0  0  0
  1  6  1  0  0  0  0
  1 12  1  0  0  0  0
  1 23  1  0  0  0  0
  2 12  1  0  0  0  0
  2 14  2  0  0  0  0
  3 12  2  0  0  0  0
  3 17  1  0  0  0  0
  4 10  1  0  0  0  0
  4 32  1  0  0  0  0
  4 33  1  0  0  0  0
  5 19  1  0  0  0  0
  5 21  2  0  0  0  0
  6  7  2  0  0  0  0
  6  8  1  0  0  0  0
  7  9  1  0  0  0  0
  7 13  1  0  0  0  0
  8 10  2  0  0  0  0
  8 22  1  0  0  0  0
  9 11  2  0  0  0  0
  9 24  1  0  0  0  0
 10 11  1  0  0  0  0
 11 25  1  0  0  0  0
 13 26  1  0  0  0  0
 13 27  1  0  0  0  0
 13 28  1  0  0  0  0
 14 15  1  0  0  0  0
 14 16  1  0  0  0  0
 15 18  1  0  0  0  0
 15 19  2  0  0  0  0
 16 17  2  0  0  0  0
 16 29  1  0  0  0  0
 17 30  1  0  0  0  0
 18 20  2  0  0  0  0
 18 31  1  0  0  0  0
 19 34  1  0  0  0  0
 20 21  1  0  0  0  0
 20 35  1  0  0  0  0
 21 36  1  0  0  0  0
M  END
> <PUBCHEM_COMPOUND_CID>
9965429

> <PUBCHEM_CONFORMER_RMSD>
0.6

> <PUBCHEM_CONFORMER_DIVERSEORDER>
1
70
48
64
55
37
8
39
9
6
41
65
49
17
23
2
36
15
69
19
56
62
11
33
60
29
16
45
24
18
26
28
35
47
58
10
68
34
59
12
13
50
20
3
5
31
27
42
66
57
14
38
4
63
40
7
53
67
32
25
46
21
54
61
30
44
52
22
43
51

> <PUBCHEM_MMFF94_PARTIAL_CHARGES>
32
1 -0.6
10 0.1
11 -0.15
12 0.72
13 0.14
14 0.31
16 -0.15
17 0.16
18 -0.15
19 0.16
2 -0.62
20 -0.15
21 0.16
22 0.15
23 0.4
24 0.15
25 0.15
29 0.15
3 -0.62
30 0.15
31 0.15
32 0.4
33 0.4
34 0.15
35 0.15
36 0.15
4 -0.9
5 -0.62
6 0.1
7 -0.14
8 -0.15
9 -0.15

> <PUBCHEM_EFFECTIVE_ROTOR_COUNT>
3

> <PUBCHEM_PHARMACOPHORE_FEATURES>
9
1 1 donor
1 2 acceptor
1 4 cation
1 4 donor
1 5 acceptor
4 1 2 3 12 cation
6 2 3 12 14 16 17 rings
6 5 15 18 19 20 21 rings
6 6 7 8 9 10 11 rings

> <PUBCHEM_HEAVY_ATOM_COUNT>
21

> <PUBCHEM_ATOM_DEF_STEREO_COUNT>
0

> <PUBCHEM_ATOM_UDEF_STEREO_COUNT>
0

> <PUBCHEM_BOND_DEF_STEREO_COUNT>
0

> <PUBCHEM_BOND_UDEF_STEREO_COUNT>
0

> <PUBCHEM_ISOTOPIC_ATOM_COUNT>
0

> <PUBCHEM_COMPONENT_COUNT>
1

> <PUBCHEM_CACTVS_TAUTO_COUNT>
3

> <PUBCHEM_CONFORMER_ID>
00980F7500000001

> <PUBCHEM_MMFF94_ENERGY>
84.3618

> <PUBCHEM_FEATURE_SELFOVERLAP>
45.671

> <PUBCHEM_SHAPE_FINGERPRINT>
10090160 65 18334288807987120367
10411042 1 17112977920862388482
10498660 4 18412826893262221909
10670039 82 18335997445046677700
11370993 70 18409165532458226228
11725454 13 17274245288635905064
12403260 363 18410003334691290650
12788726 201 17538843990084391474
13583140 156 16878218770257423771
138480 1 17904764371442363018
14739800 52 18053082194261723456
14767858 380 18196075854490880247
14787075 74 18190739928824770195
14790565 3 17911806765626867449
15196674 1 18410292505879805717
15442244 35 17979072682756411427
17492 89 18339923702185471271
19591789 44 17617382122857138883
20510252 161 18195539309352621082
20715895 44 18047176459257465749
20739085 24 18114179675851592766
21524375 3 18341895229354176262
21864079 5 18338521837322043195
22393880 68 18341899532747623620
22749437 52 18335143098108887236
22950370 63 9655304760626443856
235170 7 16558758922455997660
23559900 14 18127401263745875163
245318 6 17605571048434133300
352729 6 18191599755074810118
4280585 95 17481439183714603294
474 4 18334012765806175747
5048184 11 18410580565094570373
5104073 3 18261679151974958323
53777708 50 18270117894991339547
6328613 192 18261119625654225700
67856867 119 18337941295035183402
7832392 63 17907299845176711363
84936 182 18342737373624766088
9709674 26 18409736123190466459
9981440 41 18335418010370425482

> <PUBCHEM_SHAPE_MULTIPOLES>
407.27
9.47
3.8
0.84
0.05
0.91
-0.05
-5.33
-1.33
-0.73
0.38
0.17
-0.26
-1.31

> <PUBCHEM_SHAPE_SELFOVERLAP>
892.173

> <PUBCHEM_SHAPE_VOLUME>
215.1

> <PUBCHEM_COORDINATE_TYPE>
2
5
10

$$$$
409363
  -OEChem-01162405103D

 22 22  0     0  0  0  0  0  0999 V2000
   -1.2483   -0.1004    0.8823 N   0  0  0  0  0  0  0  0  0  0  0  0
   -3.5131   -0.2045    0.0421 N   0  0  0  0  0  0  0  0  0  0  0  0
   -1.7139   -0.3923   -1.3469 N   0  0  0  0  0  0  0  0  0  0  0  0
    0.7722    0.9994    0.0990 C   0  0  0  0  0  0  0  0  0  0  0  0
    0.0876   -0.1589    0.4669 C   0  0  0  0  0  0  0  0  0  0  0  0
    2.1029    0.9222   -0.3121 C   0  0  0  0  0  0  0  0  0  0  0  0
    0.7338   -1.3942    0.4237 C   0  0  0  0  0  0  0  0  0  0  0  0
    0.1019    2.3338    0.1369 C   0  0  0  0  0  0  0  0  0  0  0  0
    2.7490   -0.3132   -0.3552 C   0  0  0  0  0  0  0  0  0  0  0  0
    2.0646   -1.4715    0.0127 C   0  0  0  0  0  0  0  0  0  0  0  0
   -2.1367   -0.2204   -0.0493 C   0  0  0  0  0  0  0  0  0  0  0  0
    2.6501    1.8148   -0.6037 H   0  0  0  0  0  0  0  0  0  0  0  0
    0.2103   -2.3031    0.7094 H   0  0  0  0  0  0  0  0  0  0  0  0
   -0.6360    2.4140   -0.6676 H   0  0  0  0  0  0  0  0  0  0  0  0
   -0.3945    2.4931    1.1000 H   0  0  0  0  0  0  0  0  0  0  0  0
    0.8207    3.1510    0.0118 H   0  0  0  0  0  0  0  0  0  0  0  0
    3.7850   -0.3736   -0.6757 H   0  0  0  0  0  0  0  0  0  0  0  0
    2.5677   -2.4334   -0.0208 H   0  0  0  0  0  0  0  0  0  0  0  0
   -3.9762   -0.0850    0.9365 H   0  0  0  0  0  0  0  0  0  0  0  0
   -4.1005   -0.3097   -0.7778 H   0  0  0  0  0  0  0  0  0  0  0  0
   -2.3985   -0.4876   -2.0903 H   0  0  0  0  0  0  0  0  0  0  0  0
   -0.7482   -0.4329   -1.6485 H   0  0  0  0  0  0  0  0  0  0  0  0
  1  5  1  0  0  0  0
  1 11  2  0  0  0  0
  2 11  1  0  0  0  0
  2 19  1  0  0  0  0
  2 20  1  0  0  0  0
  3 11  1  0  0  0  0
  3 21  1  0  0  0  0
  3 22  1  0  0  0  0
  4  5  1  0  0  0  0
  4  6  2  0  0  0  0
  4  8  1  0  0  0  0
  5  7  2  0  0  0  0
  6  9  1  0  0  0  0
  6 12  1  0  0  0  0
  7 10  1  0  0  0  0
  7 13  1  0  0  0  0
  8 14  1  0  0  0  0
  8 15  1  0  0  0  0
  8 16  1  0  0  0  0
  9 10  2  0  0  0  0
  9 17  1  0  0  0  0
 10 18  1  0  0  0  0
M  END
> <PUBCHEM_COMPOUND_CID>
409363

> <PUBCHEM_CONFORMER_RMSD>
0.4

> <PUBCHEM_CONFORMER_DIVERSEORDER>
1
2

> <PUBCHEM_MMFF94_PARTIAL_CHARGES>
19
1 -0.63
10 -0.15
11 0.55
12 0.15
13 0.15
17 0.15
18 0.15
19 0.4
2 -0.85
20 0.4
21 0.4
22 0.4
3 -0.85
4 -0.14
5 0.18
6 -0.15
7 -0.15
8 0.14
9 -0.15

> <PUBCHEM_EFFECTIVE_ROTOR_COUNT>
1

> <PUBCHEM_PHARMACOPHORE_FEATURES>
4
1 2 donor
1 3 donor
4 1 2 3 11 cation
6 4 5 6 7 9 10 rings

> <PUBCHEM_HEAVY_ATOM_COUNT>
11

> <PUBCHEM_ATOM_DEF_STEREO_COUNT>
0

> <PUBCHEM_ATOM_UDEF_STEREO_COUNT>
0

> <PUBCHEM_BOND_DEF_STEREO_COUNT>
0

> <PUBCHEM_BOND_UDEF_STEREO_COUNT>
0

> <PUBCHEM_ISOTOPIC_ATOM_COUNT>
0

> <PUBCHEM_COMPONENT_COUNT>
1

> <PUBCHEM_CACTVS_TAUTO_COUNT>
2

> <PUBCHEM_CONFORMER_ID>
00063F1300000001

> <PUBCHEM_MMFF94_ENERGY>
42.3602

> <PUBCHEM_FEATURE_SELFOVERLAP>
20.353

> <PUBCHEM_SHAPE_FINGERPRINT>
10353120 184 18337121059513472934
11031198 65 18260839240533103901
11206711 2 18190757340415901596
12423570 1 12147169121163214786
12897270 3 18335422356866440990
14128692 85 17917705854960209423
14993402 34 18131917056937996679
16945 1 18335993008054835730
17844478 74 17603877688889381801
18185500 45 18343581841314711974
20201158 50 18187085044150624242
21040471 1 18048039863457505384
23552423 10 18117004277783234658
2748010 2 18265894653437952252
29004967 10 18408608062830080458
528886 8 18411136961033029450
63268167 104 18341054098331469144

> <PUBCHEM_SHAPE_MULTIPOLES>
211.43
3.95
1.73
0.85
2.11
0.82
0.12
-0.93
0.58
-0.7
-0.13
0.23
-0.08
-0.13

> <PUBCHEM_SHAPE_SELFOVERLAP>
439.976

> <PUBCHEM_SHAPE_VOLUME>
119.2

> <PUBCHEM_COORDINATE_TYPE>
2
5
10

$$$$
10181075
  -OEChem-01162405103D

 51 54  0     0  0  0  0  0  0999 V2000
    7.9206    0.4563    1.0859 Cl  0  0  0  0  0  0  0  0  0  0  0  0
    0.8238    0.0919   -0.8375 O   0  0  0  0  0  0  0  0  0  0  0  0
   -3.5164   -1.6723   -0.4390 N   0  0  0  0  0  0  0  0  0  0  0  0
    1.2790   -2.0040    0.1139 N   0  0  0  0  0  0  0  0  0  0  0  0
   -2.8013    0.5339   -0.0816 N   0  0  0  0  0  0  0  0  0  0  0  0
   -4.9972    0.0718   -0.9598 N   0  0  0  0  0  0  0  0  0  0  0  0
   -0.9354    4.8776    0.1227 N   0  0  0  0  0  0  0  0  0  0  0  0
   -2.3871   -2.4101   -0.0204 C   0  0  0  0  0  0  0  0  0  0  0  0
   -2.5309   -3.6865    0.5234 C   0  0  0  0  0  0  0  0  0  0  0  0
   -0.0108   -2.5730    0.2532 C   0  0  0  0  0  0  0  0  0  0  0  0
   -1.1173   -1.8491   -0.1566 C   0  0  0  0  0  0  0  0  0  0  0  0
   -1.4049   -4.4019    0.9313 C   0  0  0  0  0  0  0  0  0  0  0  0
   -0.1353   -3.8409    0.7951 C   0  0  0  0  0  0  0  0  0  0  0  0
   -3.8789   -4.3108    0.6821 C   0  0  0  0  0  0  0  0  0  0  0  0
    3.0510   -0.4517   -0.4435 C   0  0  0  0  0  0  0  0  0  0  0  0
    1.6278   -0.7488   -0.4036 C   0  0  0  0  0  0  0  0  0  0  0  0
   -3.7839   -0.2921   -0.4963 C   0  0  0  0  0  0  0  0  0  0  0  0
    5.7812    0.1168   -0.5165 C   0  0  0  0  0  0  0  0  0  0  0  0
    3.4896    0.8710   -0.3850 C   0  0  0  0  0  0  0  0  0  0  0  0
    3.9774   -1.4903   -0.5384 C   0  0  0  0  0  0  0  0  0  0  0  0
   -3.0915    1.8496   -0.1498 C   0  0  0  0  0  0  0  0  0  0  0  0
    4.8547    1.1553   -0.4215 C   0  0  0  0  0  0  0  0  0  0  0  0
    5.3424   -1.2059   -0.5748 C   0  0  0  0  0  0  0  0  0  0  0  0
   -2.0394    2.7330    0.2929 C   0  0  0  0  0  0  0  0  0  0  0  0
   -4.2954    2.3467   -0.6054 C   0  0  0  0  0  0  0  0  0  0  0  0
    7.2406    0.4214   -0.5565 C   0  0  0  0  0  0  0  0  0  0  0  0
   -5.2201    1.4019   -1.0010 C   0  0  0  0  0  0  0  0  0  0  0  0
   -1.1361    2.3383    1.2741 C   0  0  0  0  0  0  0  0  0  0  0  0
   -1.8968    4.0018   -0.2462 C   0  0  0  0  0  0  0  0  0  0  0  0
   -0.1332    3.2116    1.6802 C   0  0  0  0  0  0  0  0  0  0  0  0
   -0.0763    4.4585    1.0788 C   0  0  0  0  0  0  0  0  0  0  0  0
   -1.0345   -0.8942   -0.6441 H   0  0  0  0  0  0  0  0  0  0  0  0
   -1.4988   -5.3977    1.3564 H   0  0  0  0  0  0  0  0  0  0  0  0
    0.7351   -4.4068    1.1153 H   0  0  0  0  0  0  0  0  0  0  0  0
   -4.3327   -2.2303   -0.6667 H   0  0  0  0  0  0  0  0  0  0  0  0
    2.0206   -2.5945    0.4802 H   0  0  0  0  0  0  0  0  0  0  0  0
   -3.8233   -5.2663    1.2152 H   0  0  0  0  0  0  0  0  0  0  0  0
   -4.5416   -3.6601    1.2623 H   0  0  0  0  0  0  0  0  0  0  0  0
   -4.3268   -4.5080   -0.2973 H   0  0  0  0  0  0  0  0  0  0  0  0
    2.7846    1.6945   -0.3046 H   0  0  0  0  0  0  0  0  0  0  0  0
    3.6837   -2.5321   -0.6253 H   0  0  0  0  0  0  0  0  0  0  0  0
    5.1839    2.1899   -0.3728 H   0  0  0  0  0  0  0  0  0  0  0  0
    6.0544   -2.0232   -0.6562 H   0  0  0  0  0  0  0  0  0  0  0  0
   -4.5461    3.3989   -0.6449 H   0  0  0  0  0  0  0  0  0  0  0  0
    7.4317    1.3929   -1.0244 H   0  0  0  0  0  0  0  0  0  0  0  0
    7.7881   -0.3299   -1.1353 H   0  0  0  0  0  0  0  0  0  0  0  0
   -6.1973    1.6966   -1.3686 H   0  0  0  0  0  0  0  0  0  0  0  0
   -1.1930    1.3606    1.7461 H   0  0  0  0  0  0  0  0  0  0  0  0
   -2.5420    4.3828   -1.0318 H   0  0  0  0  0  0  0  0  0  0  0  0
    0.5812    2.9256    2.4437 H   0  0  0  0  0  0  0  0  0  0  0  0
    0.6873    5.1762    1.3601 H   0  0  0  0  0  0  0  0  0  0  0  0
  1 26  1  0  0  0  0
  2 16  2  0  0  0  0
  3  8  1  0  0  0  0
  3 17  1  0  0  0  0
  3 35  1  0  0  0  0
  4 10  1  0  0  0  0
  4 16  1  0  0  0  0
  4 36  1  0  0  0  0
  5 17  1  0  0  0  0
  5 21  2  0  0  0  0
  6 17  2  0  0  0  0
  6 27  1  0  0  0  0
  7 29  1  0  0  0  0
  7 31  2  0  0  0  0
  8  9  2  0  0  0  0
  8 11  1  0  0  0  0
  9 12  1  0  0  0  0
  9 14  1  0  0  0  0
 10 11  2  0  0  0  0
 10 13  1  0  0  0  0
 11 32  1  0  0  0  0
 12 13  2  0  0  0  0
 12 33  1  0  0  0  0
 13 34  1  0  0  0  0
 14 37  1  0  0  0  0
 14 38  1  0  0  0  0
 14 39  1  0  0  0  0
 15 16  1  0  0  0  0
 15 19  2  0  0  0  0
 15 20  1  0  0  0  0
 18 22  2  0  0  0  0
 18 23  1  0  0  0  0
 18 26  1  0  0  0  0
 19 22  1  0  0  0  0
 19 40  1  0  0  0  0
 20 23  2  0  0  0  0
 20 41  1  0  0  0  0
 21 24  1  0  0  0  0
 21 25  1  0  0  0  0
 22 42  1  0  0  0  0
 23 43  1  0  0  0  0
 24 28  1  0  0  0  0
 24 29  2  0  0  0  0
 25 27  2  0  0  0  0
 25 44  1  0  0  0  0
 26 45  1  0  0  0  0
 26 46  1  0  0  0  0
 27 47  1  0  0  0  0
 28 30  2  0  0  0  0
 28 48  1  0  0  0  0
 29 49  1  0  0  0  0
 30 31  1  0  0  0  0
 30 50  1  0  0  0  0
 31 51  1  0  0  0  0
M  END
> <PUBCHEM_COMPOUND_CID>
10181075

> <PUBCHEM_CONFORMER_RMSD>
1

> <PUBCHEM_CONFORMER_DIVERSEORDER>
1
111
60
70
25
18
58
50
72
61
109
96
87
62
8
105
15
19
108
23
80
12
85
22
112
95
57
79
78
55
100
77
110
49
51
75
69
63
104
86
13
83
33
59
47
37
54
46
98
67
52
9
20
114
88
107
94
73
68
38
2
97
101
43
89
48
113
4
106
11
93
5
53
71
74
91
45
30
29
103
82
40
92
76
17
28
35
99
10
81
16
32
31
84
34
36
42
66
21
90
64
14
44
27
102
65
41
56
26
24
39
3
7
6

> <PUBCHEM_MMFF94_PARTIAL_CHARGES>
45
1 -0.29
10 0.12
11 -0.15
12 -0.15
13 -0.15
14 0.14
15 0.09
16 0.54
17 0.72
18 -0.14
19 -0.15
2 -0.57
20 -0.15
21 0.31
22 -0.15
23 -0.15
25 -0.15
26 0.43
27 0.16
28 -0.15
29 0.16
3 -0.6
30 -0.15
31 0.16
32 0.15
33 0.15
34 0.15
35 0.4
36 0.37
4 -0.55
40 0.15
41 0.15
42 0.15
43 0.15
44 0.15
47 0.15
48 0.15
49 0.15
5 -0.62
50 0.15
51 0.15
6 -0.62
7 -0.62
8 0.1
9 -0.14

> <PUBCHEM_EFFECTIVE_ROTOR_COUNT>
7

> <PUBCHEM_PHARMACOPHORE_FEATURES>
10
1 2 acceptor
1 3 donor
1 4 donor
1 5 acceptor
1 7 acceptor
4 3 5 6 17 cation
6 15 18 19 20 22 23 rings
6 5 6 17 21 25 27 rings
6 7 24 28 29 30 31 rings
6 8 9 10 11 12 13 rings

> <PUBCHEM_HEAVY_ATOM_COUNT>
31

> <PUBCHEM_ATOM_DEF_STEREO_COUNT>
0

> <PUBCHEM_ATOM_UDEF_STEREO_COUNT>
0

> <PUBCHEM_BOND_DEF_STEREO_COUNT>
0

> <PUBCHEM_BOND_UDEF_STEREO_COUNT>
0

> <PUBCHEM_ISOTOPIC_ATOM_COUNT>
0

> <PUBCHEM_COMPONENT_COUNT>
1

> <PUBCHEM_CACTVS_TAUTO_COUNT>
6

> <PUBCHEM_CONFORMER_ID>
009B59D300000001

> <PUBCHEM_MMFF94_ENERGY>
109.8186

> <PUBCHEM_FEATURE_SELFOVERLAP>
50.747

> <PUBCHEM_SHAPE_FINGERPRINT>
10032420 55 18198040522333919677
100830 39 18410294693057486940
10411042 1 17831303066466433475
10675989 125 17614836319826631749
1100329 8 18337960090402654325
11135609 187 18191580844993708749
11434127 23 18271245998232178196
12104220 1 18409724050670244804
12107183 9 18043802101322298298
12128747 34 18129105529246032870
12645989 146 17983299510639510126
12788726 201 18411976928008771338
13347071 3 18194125333975207500
14251757 5 18409730676928646906
14394314 77 18340492154139607481
14647877 51 18052817245548702489
14765038 42 17915194433465011305
14790565 3 17904204732956498542
14931854 50 18340760434712404701
14932702 115 18269849772825813616
15320467 1 18410013200152295188
15328829 1 17822558431825928184
15351339 4 18336252458223410323
15400415 2 17905612099535473596
15776043 110 17752202782856616874
15890870 6 18335136449947756805
15968369 153 17845365708890649888
15968369 26 17836060627135275181
16992787 43 18267583499826961421
17627616 140 18048600313587252538
20642791 105 18260831557074364983
21133410 221 17843090827690641128
23522609 53 17313682524778159918
23559900 14 18342170103098041296
283562 15 18268430140247652145
3493558 16 18262529207628476580
373842 8 18196648717361052720
42626532 9 17899982934971007842
437795 96 17909820274025964936
4394409 98 18188203204685266389
463206 1 18412550928634171597
469060 322 18265922223138838321
474144 1 17825370908637749074
484989 97 18189895504306101711
5047190 69 18341322384255125728
5171179 24 17984132949074108995
550186 7 18272664424103409878
6371009 1 17975961082013876282
7226269 152 18411417310939363454
9980921 221 18194992698372478054
9981440 41 18118973494323611641

> <PUBCHEM_SHAPE_MULTIPOLES>
609.06
13.84
6.77
1.08
28.46
0.61
0.26
0.98
-2.56
-8.86
2.79
0.03
0.39
1.23

> <PUBCHEM_SHAPE_SELFOVERLAP>
1326.767

> <PUBCHEM_SHAPE_VOLUME>
330.3

> <PUBCHEM_COORDINATE_TYPE>
2
5
10

$$$$
29982268
  -OEChem-01162405103D

 69 73  0     0  0  0  0  0  0999 V2000
   -9.2110   -0.7270    0.6537 O   0  5  0  0  0  0  0  0  0  0  0  0
    1.0696    0.0042   -1.1312 O   0  0  0  0  0  0  0  0  0  0  0  0
   -8.3358    0.1348    1.2646 N   0  3  0  0  0  0  0  0  0  0  0  0
   -6.0673    0.2984   -0.5763 N   0  0  0  0  0  0  0  0  0  0  0  0
    0.5972   -2.1053   -0.2185 N   0  0  0  0  0  0  0  0  0  0  0  0
    5.4144   -1.5071   -0.0626 N   0  0  0  0  0  0  0  0  0  0  0  0
    4.5303    0.6521    0.1454 N   0  0  0  0  0  0  0  0  0  0  0  0
    6.8539    0.3102   -0.3942 N   0  0  0  0  0  0  0  0  0  0  0  0
    2.4172    4.8840    0.0062 N   0  0  0  0  0  0  0  0  0  0  0  0
   -8.0838    1.3393    0.3845 C   0  0  0  0  0  0  0  0  0  0  0  0
   -7.0168   -0.5565    1.5310 C   0  0  0  0  0  0  0  0  0  0  0  0
   -7.3402    0.9590   -0.8932 C   0  0  0  0  0  0  0  0  0  0  0  0
   -6.2910   -0.9058    0.2344 C   0  0  0  0  0  0  0  0  0  0  0  0
   -8.9456    0.5778    2.5649 C   0  0  0  0  0  0  0  0  0  0  0  0
   -5.3408   -0.0334   -1.8011 C   0  0  0  0  0  0  0  0  0  0  0  0
   -3.8744   -0.2542   -1.5409 C   0  0  0  0  0  0  0  0  0  0  0  0
   -3.0313    0.8371   -1.3305 C   0  0  0  0  0  0  0  0  0  0  0  0
   -3.3591   -1.5500   -1.5090 C   0  0  0  0  0  0  0  0  0  0  0  0
   -1.6730    0.6324   -1.0879 C   0  0  0  0  0  0  0  0  0  0  0  0
   -2.0007   -1.7547   -1.2668 C   0  0  0  0  0  0  0  0  0  0  0  0
   -1.1576   -0.6634   -1.0564 C   0  0  0  0  0  0  0  0  0  0  0  0
    0.2586   -0.8773   -0.8039 C   0  0  0  0  0  0  0  0  0  0  0  0
    1.8825   -2.5974    0.1174 C   0  0  0  0  0  0  0  0  0  0  0  0
    3.0142   -1.8214   -0.1329 C   0  0  0  0  0  0  0  0  0  0  0  0
    4.2795   -2.3059    0.1990 C   0  0  0  0  0  0  0  0  0  0  0  0
    2.0159   -3.8581    0.6995 C   0  0  0  0  0  0  0  0  0  0  0  0
    4.4130   -3.5665    0.7811 C   0  0  0  0  0  0  0  0  0  0  0  0
    3.2812   -4.3427    1.0310 C   0  0  0  0  0  0  0  0  0  0  0  0
    5.7557   -4.1104    1.1470 C   0  0  0  0  0  0  0  0  0  0  0  0
    5.6086   -0.1142   -0.1070 C   0  0  0  0  0  0  0  0  0  0  0  0
    4.7533    1.9819    0.0982 C   0  0  0  0  0  0  0  0  0  0  0  0
    3.6001    2.8068    0.3681 C   0  0  0  0  0  0  0  0  0  0  0  0
    5.9817    2.5438   -0.1843 C   0  0  0  0  0  0  0  0  0  0  0  0
    7.0058    1.6505   -0.4246 C   0  0  0  0  0  0  0  0  0  0  0  0
    2.5865    2.3681    1.2128 C   0  0  0  0  0  0  0  0  0  0  0  0
    3.4691    4.0614   -0.2052 C   0  0  0  0  0  0  0  0  0  0  0  0
    1.4882    3.1859    1.4548 C   0  0  0  0  0  0  0  0  0  0  0  0
    1.4517    4.4236    0.8329 C   0  0  0  0  0  0  0  0  0  0  0  0
   -9.0661    1.7675    0.1560 H   0  0  0  0  0  0  0  0  0  0  0  0
   -7.5057    2.0530    0.9836 H   0  0  0  0  0  0  0  0  0  0  0  0
   -6.4211    0.1261    2.1489 H   0  0  0  0  0  0  0  0  0  0  0  0
   -7.2508   -1.4589    2.1069 H   0  0  0  0  0  0  0  0  0  0  0  0
   -7.9689    0.3101   -1.5166 H   0  0  0  0  0  0  0  0  0  0  0  0
   -7.1534    1.8782   -1.4611 H   0  0  0  0  0  0  0  0  0  0  0  0
   -5.3397   -1.3703    0.5147 H   0  0  0  0  0  0  0  0  0  0  0  0
   -6.8680   -1.6525   -0.3264 H   0  0  0  0  0  0  0  0  0  0  0  0
   -9.1137   -0.3166    3.1710 H   0  0  0  0  0  0  0  0  0  0  0  0
   -8.2516    1.2650    3.0554 H   0  0  0  0  0  0  0  0  0  0  0  0
   -9.8940    1.0700    2.3327 H   0  0  0  0  0  0  0  0  0  0  0  0
   -5.4077    0.7951   -2.5204 H   0  0  0  0  0  0  0  0  0  0  0  0
   -5.7841   -0.8963   -2.3169 H   0  0  0  0  0  0  0  0  0  0  0  0
   -3.4212    1.8514   -1.3513 H   0  0  0  0  0  0  0  0  0  0  0  0
   -4.0038   -2.4083   -1.6792 H   0  0  0  0  0  0  0  0  0  0  0  0
   -1.0343    1.4960   -0.9207 H   0  0  0  0  0  0  0  0  0  0  0  0
   -1.6400   -2.7787   -1.2900 H   0  0  0  0  0  0  0  0  0  0  0  0
   -0.1549   -2.7354    0.0464 H   0  0  0  0  0  0  0  0  0  0  0  0
    2.9479   -0.8767   -0.6448 H   0  0  0  0  0  0  0  0  0  0  0  0
    1.1424   -4.4733    0.8997 H   0  0  0  0  0  0  0  0  0  0  0  0
    3.3671   -5.3272    1.4830 H   0  0  0  0  0  0  0  0  0  0  0  0
    6.2857   -2.0183   -0.1573 H   0  0  0  0  0  0  0  0  0  0  0  0
    6.3528   -4.2918    0.2473 H   0  0  0  0  0  0  0  0  0  0  0  0
    6.2889   -3.4163    1.8053 H   0  0  0  0  0  0  0  0  0  0  0  0
    5.6755   -5.0618    1.6844 H   0  0  0  0  0  0  0  0  0  0  0  0
    6.1765    3.6083   -0.2042 H   0  0  0  0  0  0  0  0  0  0  0  0
    8.0084    1.9981   -0.6502 H   0  0  0  0  0  0  0  0  0  0  0  0
    2.6273    1.3986    1.7028 H   0  0  0  0  0  0  0  0  0  0  0  0
    4.2005    4.4729   -0.8938 H   0  0  0  0  0  0  0  0  0  0  0  0
    0.6865    2.8652    2.1100 H   0  0  0  0  0  0  0  0  0  0  0  0
    0.6168    5.0989    0.9889 H   0  0  0  0  0  0  0  0  0  0  0  0
  1  3  1  0  0  0  0
  2 22  2  0  0  0  0
  3 10  1  0  0  0  0
  3 11  1  0  0  0  0
  3 14  1  0  0  0  0
  4 12  1  0  0  0  0
  4 13  1  0  0  0  0
  4 15  1  0  0  0  0
  5 22  1  0  0  0  0
  5 23  1  0  0  0  0
  5 56  1  0  0  0  0
  6 25  1  0  0  0  0
  6 30  1  0  0  0  0
  6 60  1  0  0  0  0
  7 30  1  0  0  0  0
  7 31  2  0  0  0  0
  8 30  2  0  0  0  0
  8 34  1  0  0  0  0
  9 36  1  0  0  0  0
  9 38  2  0  0  0  0
 10 12  1  0  0  0  0
 10 39  1  0  0  0  0
 10 40  1  0  0  0  0
 11 13  1  0  0  0  0
 11 41  1  0  0  0  0
 11 42  1  0  0  0  0
 12 43  1  0  0  0  0
 12 44  1  0  0  0  0
 13 45  1  0  0  0  0
 13 46  1  0  0  0  0
 14 47  1  0  0  0  0
 14 48  1  0  0  0  0
 14 49  1  0  0  0  0
 15 16  1  0  0  0  0
 15 50  1  0  0  0  0
 15 51  1  0  0  0  0
 16 17  2  0  0  0  0
 16 18  1  0  0  0  0
 17 19  1  0  0  0  0
 17 52  1  0  0  0  0
 18 20  2  0  0  0  0
 18 53  1  0  0  0  0
 19 21  2  0  0  0  0
 19 54  1  0  0  0  0
 20 21  1  0  0  0  0
 20 55  1  0  0  0  0
 21 22  1  0  0  0  0
 23 24  2  0  0  0  0
 23 26  1  0  0  0  0
 24 25  1  0  0  0  0
 24 57  1  0  0  0  0
 25 27  2  0  0  0  0
 26 28  2  0  0  0  0
 26 58  1  0  0  0  0
 27 28  1  0  0  0  0
 27 29  1  0  0  0  0
 28 59  1  0  0  0  0
 29 61  1  0  0  0  0
 29 62  1  0  0  0  0
 29 63  1  0  0  0  0
 31 32  1  0  0  0  0
 31 33  1  0  0  0  0
 32 35  1  0  0  0  0
 32 36  2  0  0  0  0
 33 34  2  0  0  0  0
 33 64  1  0  0  0  0
 34 65  1  0  0  0  0
 35 37  2  0  0  0  0
 35 66  1  0  0  0  0
 36 67  1  0  0  0  0
 37 38  1  0  0  0  0
 37 68  1  0  0  0  0
 38 69  1  0  0  0  0
M  CHG  2   1  -1   3   1
M  END
> <PUBCHEM_COMPOUND_CID>
29982268

> <PUBCHEM_CONFORMER_RMSD>
1.2

> <PUBCHEM_CONFORMER_DIVERSEORDER>
1
83
84
15
61
52
104
85
113
19
69
88
91
108
67
100
54
45
93
66
29
70
39
111
59
101
25
102
90
57
62
44
63
105
112
94
60
7
48
87
28
26
109
68
81
33
58
73
95
23
41
80
53
97
74
32
40
35
56
107
31
64
75
106
51
24
98
89
50
99
103
16
20
79
82
22
92
65
46
38
43
72
78
9
96
3
71
6
36
8
47
30
49
76
21
77
86
14
42
55
12
2
18
10
37
4
17
5
27
110
13
34
11

> <PUBCHEM_MMFF94_PARTIAL_CHARGES>
52
1 -0.75
10 0.26
11 0.26
12 0.27
13 0.27
14 0.26
15 0.41
16 -0.14
17 -0.15
18 -0.15
19 -0.15
2 -0.57
20 -0.15
21 0.09
22 0.54
23 0.12
24 -0.15
25 0.1
26 -0.15
27 -0.14
28 -0.15
29 0.14
3 -0.02
30 0.72
31 0.31
33 -0.15
34 0.16
35 -0.15
36 0.16
37 -0.15
38 0.16
4 -0.81
5 -0.55
52 0.15
53 0.15
54 0.15
55 0.15
56 0.37
57 0.15
58 0.15
59 0.15
6 -0.6
60 0.4
64 0.15
65 0.15
66 0.15
67 0.15
68 0.15
69 0.15
7 -0.62
8 -0.62
9 -0.62

> <PUBCHEM_EFFECTIVE_ROTOR_COUNT>
9.2

> <PUBCHEM_PHARMACOPHORE_FEATURES>
13
1 1 anion
1 2 acceptor
1 4 cation
1 5 donor
1 6 donor
1 7 acceptor
1 9 acceptor
4 6 7 8 30 cation
6 16 17 18 19 20 21 rings
6 23 24 25 26 27 28 rings
6 3 4 10 11 12 13 rings
6 7 8 30 31 33 34 rings
6 9 32 35 36 37 38 rings

> <PUBCHEM_HEAVY_ATOM_COUNT>
38

> <PUBCHEM_ATOM_DEF_STEREO_COUNT>
0

> <PUBCHEM_ATOM_UDEF_STEREO_COUNT>
0

> <PUBCHEM_BOND_DEF_STEREO_COUNT>
0

> <PUBCHEM_BOND_UDEF_STEREO_COUNT>
0

> <PUBCHEM_ISOTOPIC_ATOM_COUNT>
0

> <PUBCHEM_COMPONENT_COUNT>
1

> <PUBCHEM_CACTVS_TAUTO_COUNT>
6

> <PUBCHEM_CONFORMER_ID>
01C97E3C00000001

> <PUBCHEM_MMFF94_ENERGY>
129.5343

> <PUBCHEM_FEATURE_SELFOVERLAP>
65.972

> <PUBCHEM_SHAPE_FINGERPRINT>
10165383 225 18113899382434267046
10190108 129 18408889550544727565
10675989 125 18270674407042498648
11115154 58 17489878154769653800
11456790 92 18261664888188068904
12522641 24 18411982490049383173
12717326 120 15575580066601173585
13111901 25 17988369165855833209
13383668 362 17896617266013011851
13512321 179 17918003754582846841
13947947 74 18270681004391774876
14114211 68 18114759191821195758
14849402 71 18412263952310113885
15264996 151 18335417911892430912
15326921 28 16042777112756792808
15328829 1 17561090215353355137
15400415 2 17761197122373131108
15419008 91 17241033324443264999
15439362 3 17981317113240465672
19304671 126 17988370381753570804
20156587 191 18188759549786042989
21781055 127 16773523174324493335
21927370 108 18123466077713743610
22033318 11 17986691285299670265
23191077 185 17201345520030229141
23522609 53 18059859480507361655
3178227 256 18409449215185361512
394071 54 18273497862116860183
397830 11 17967814947099453823
437795 51 18259985972355311611
44426701 97 17095815390043917589
5109719 28 18408603677531386102
5776283 40 18120654889113030284
58083652 198 18337379432372963711
5911458 16 17846789507433088329

> <PUBCHEM_SHAPE_MULTIPOLES>
735.42
24.49
5.85
1.58
53.91
1.27
-0.29
2.04
-8.21
-14.29
-2.33
3.35
-0.07
-1.62

> <PUBCHEM_SHAPE_SELFOVERLAP>
1596.848

> <PUBCHEM_SHAPE_VOLUME>
399.3

> <PUBCHEM_COORDINATE_TYPE>
2
5
10

$$$$
24897305
  -OEChem-01162405103D

 71 75  0     0  0  0  0  0  0999 V2000
   -0.8163    0.1761   -1.1356 O   0  0  0  0  0  0  0  0  0  0  0  0
    6.3178   -0.0777   -0.5260 N   0  0  0  0  0  0  0  0  0  0  0  0
    8.5697    0.0792    1.2802 N   0  0  0  0  0  0  0  0  0  0  0  0
   -0.3709    2.2618   -0.1577 N   0  0  0  0  0  0  0  0  0  0  0  0
   -5.1841    1.6205   -0.0675 N   0  0  0  0  0  0  0  0  0  0  0  0
   -4.2828   -0.5361    0.0848 N   0  0  0  0  0  0  0  0  0  0  0  0
   -6.6048   -0.1990   -0.4649 N   0  0  0  0  0  0  0  0  0  0  0  0
   -2.1270   -4.7406   -0.1677 N   0  0  0  0  0  0  0  0  0  0  0  0
    7.5985   -0.7194   -0.8473 C   0  0  0  0  0  0  0  0  0  0  0  0
    6.5340    1.1008    0.3220 C   0  0  0  0  0  0  0  0  0  0  0  0
    8.3547   -1.0986    0.4307 C   0  0  0  0  0  0  0  0  0  0  0  0
    7.2890    0.7213    1.6006 C   0  0  0  0  0  0  0  0  0  0  0  0
    5.5985    0.2850   -1.7455 C   0  0  0  0  0  0  0  0  0  0  0  0
    9.2875   -0.2848    2.5003 C   0  0  0  0  0  0  0  0  0  0  0  0
    4.1285    0.4871   -1.4905 C   0  0  0  0  0  0  0  0  0  0  0  0
    3.2926   -0.6166   -1.3202 C   0  0  0  0  0  0  0  0  0  0  0  0
    3.6023    1.7773   -1.4261 C   0  0  0  0  0  0  0  0  0  0  0  0
    1.9304   -0.4298   -1.0853 C   0  0  0  0  0  0  0  0  0  0  0  0
    2.2401    1.9639   -1.1913 C   0  0  0  0  0  0  0  0  0  0  0  0
    1.4041    0.8604   -1.0208 C   0  0  0  0  0  0  0  0  0  0  0  0
   -0.0162    1.0545   -0.7755 C   0  0  0  0  0  0  0  0  0  0  0  0
   -1.6633    2.7328    0.1809 C   0  0  0  0  0  0  0  0  0  0  0  0
   -4.0585    2.4205    0.2280 C   0  0  0  0  0  0  0  0  0  0  0  0
   -2.7861    1.9557   -0.1042 C   0  0  0  0  0  0  0  0  0  0  0  0
   -4.2082    3.6624    0.8453 C   0  0  0  0  0  0  0  0  0  0  0  0
   -1.8130    3.9748    0.7982 C   0  0  0  0  0  0  0  0  0  0  0  0
   -3.0854    4.4395    1.1304 C   0  0  0  0  0  0  0  0  0  0  0  0
   -5.5590    4.1845    1.2130 C   0  0  0  0  0  0  0  0  0  0  0  0
   -5.3661    0.2278   -0.1533 C   0  0  0  0  0  0  0  0  0  0  0  0
   -4.4929   -1.8657   -0.0059 C   0  0  0  0  0  0  0  0  0  0  0  0
   -3.3343   -2.6878    0.2488 C   0  0  0  0  0  0  0  0  0  0  0  0
   -5.7134   -2.4297   -0.3170 C   0  0  0  0  0  0  0  0  0  0  0  0
   -6.7435   -1.5390   -0.5387 C   0  0  0  0  0  0  0  0  0  0  0  0
   -2.3325   -2.2659    1.1159 C   0  0  0  0  0  0  0  0  0  0  0  0
   -3.1854   -3.9223   -0.3626 C   0  0  0  0  0  0  0  0  0  0  0  0
   -1.2280   -3.0799    1.3419 C   0  0  0  0  0  0  0  0  0  0  0  0
   -1.1734   -4.2969    0.6817 C   0  0  0  0  0  0  0  0  0  0  0  0
   -0.0026   -5.1962    0.9010 C   0  0  0  0  0  0  0  0  0  0  0  0
    8.2222   -0.0592   -1.4653 H   0  0  0  0  0  0  0  0  0  0  0  0
    7.4221   -1.6361   -1.4231 H   0  0  0  0  0  0  0  0  0  0  0  0
    5.5780    1.5400    0.6279 H   0  0  0  0  0  0  0  0  0  0  0  0
    7.0937    1.8772   -0.2173 H   0  0  0  0  0  0  0  0  0  0  0  0
    7.7976   -1.8754    0.9721 H   0  0  0  0  0  0  0  0  0  0  0  0
    9.3213   -1.5302    0.1441 H   0  0  0  0  0  0  0  0  0  0  0  0
    7.4680    1.6355    2.1796 H   0  0  0  0  0  0  0  0  0  0  0  0
    6.6631    0.0614    2.2169 H   0  0  0  0  0  0  0  0  0  0  0  0
    6.0389    1.1660   -2.2323 H   0  0  0  0  0  0  0  0  0  0  0  0
    5.6779   -0.5217   -2.4881 H   0  0  0  0  0  0  0  0  0  0  0  0
    9.4856    0.6042    3.1093 H   0  0  0  0  0  0  0  0  0  0  0  0
   10.2621   -0.7222    2.2567 H   0  0  0  0  0  0  0  0  0  0  0  0
    8.7298   -1.0039    3.1111 H   0  0  0  0  0  0  0  0  0  0  0  0
    3.6910   -1.6266   -1.3670 H   0  0  0  0  0  0  0  0  0  0  0  0
    4.2415    2.6451   -1.5653 H   0  0  0  0  0  0  0  0  0  0  0  0
    1.2975   -1.3031   -0.9494 H   0  0  0  0  0  0  0  0  0  0  0  0
    1.8711    2.9852   -1.1881 H   0  0  0  0  0  0  0  0  0  0  0  0
    0.3733    2.8901    0.1325 H   0  0  0  0  0  0  0  0  0  0  0  0
   -2.7067    1.0274   -0.6432 H   0  0  0  0  0  0  0  0  0  0  0  0
   -0.9466    4.5907    1.0254 H   0  0  0  0  0  0  0  0  0  0  0  0
   -3.1841    5.4096    1.6101 H   0  0  0  0  0  0  0  0  0  0  0  0
   -6.0588    2.1271   -0.1560 H   0  0  0  0  0  0  0  0  0  0  0  0
   -6.1491    4.3861    0.3130 H   0  0  0  0  0  0  0  0  0  0  0  0
   -6.0924    3.4678    1.8463 H   0  0  0  0  0  0  0  0  0  0  0  0
   -5.4923    5.1211    1.7775 H   0  0  0  0  0  0  0  0  0  0  0  0
   -5.8978   -3.4949   -0.3718 H   0  0  0  0  0  0  0  0  0  0  0  0
   -7.7407   -1.8885   -0.7842 H   0  0  0  0  0  0  0  0  0  0  0  0
   -2.3875   -1.3127    1.6357 H   0  0  0  0  0  0  0  0  0  0  0  0
   -3.9066   -4.3191   -1.0704 H   0  0  0  0  0  0  0  0  0  0  0  0
   -0.4403   -2.7622    2.0166 H   0  0  0  0  0  0  0  0  0  0  0  0
    0.9227   -4.6969    0.5962 H   0  0  0  0  0  0  0  0  0  0  0  0
   -0.0982   -6.1166    0.3157 H   0  0  0  0  0  0  0  0  0  0  0  0
    0.0715   -5.4739    1.9572 H   0  0  0  0  0  0  0  0  0  0  0  0
  1 21  2  0  0  0  0
  2  9  1  0  0  0  0
  2 10  1  0  0  0  0
  2 13  1  0  0  0  0
  3 11  1  0  0  0  0
  3 12  1  0  0  0  0
  3 14  1  0  0  0  0
  4 21  1  0  0  0  0
  4 22  1  0  0  0  0
  4 56  1  0  0  0  0
  5 23  1  0  0  0  0
  5 29  1  0  0  0  0
  5 60  1  0  0  0  0
  6 29  1  0  0  0  0
  6 30  2  0  0  0  0
  7 29  2  0  0  0  0
  7 33  1  0  0  0  0
  8 35  1  0  0  0  0
  8 37  2  0  0  0  0
  9 11  1  0  0  0  0
  9 39  1  0  0  0  0
  9 40  1  0  0  0  0
 10 12  1  0  0  0  0
 10 41  1  0  0  0  0
 10 42  1  0  0  0  0
 11 43  1  0  0  0  0
 11 44  1  0  0  0  0
 12 45  1  0  0  0  0
 12 46  1  0  0  0  0
 13 15  1  0  0  0  0
 13 47  1  0  0  0  0
 13 48  1  0  0  0  0
 14 49  1  0  0  0  0
 14 50  1  0  0  0  0
 14 51  1  0  0  0  0
 15 16  2  0  0  0  0
 15 17  1  0  0  0  0
 16 18  1  0  0  0  0
 16 52  1  0  0  0  0
 17 19  2  0  0  0  0
 17 53  1  0  0  0  0
 18 20  2  0  0  0  0
 18 54  1  0  0  0  0
 19 20  1  0  0  0  0
 19 55  1  0  0  0  0
 20 21  1  0  0  0  0
 22 24  2  0  0  0  0
 22 26  1  0  0  0  0
 23 24  1  0  0  0  0
 23 25  2  0  0  0  0
 24 57  1  0  0  0  0
 25 27  1  0  0  0  0
 25 28  1  0  0  0  0
 26 27  2  0  0  0  0
 26 58  1  0  0  0  0
 27 59  1  0  0  0  0
 28 61  1  0  0  0  0
 28 62  1  0  0  0  0
 28 63  1  0  0  0  0
 30 31  1  0  0  0  0
 30 32  1  0  0  0  0
 31 34  1  0  0  0  0
 31 35  2  0  0  0  0
 32 33  2  0  0  0  0
 32 64  1  0  0  0  0
 33 65  1  0  0  0  0
 34 36  2  0  0  0  0
 34 66  1  0  0  0  0
 35 67  1  0  0  0  0
 36 37  1  0  0  0  0
 36 68  1  0  0  0  0
 37 38  1  0  0  0  0
 38 69  1  0  0  0  0
 38 70  1  0  0  0  0
 38 71  1  0  0  0  0
M  END
> <PUBCHEM_COMPOUND_CID>
24897305

> <PUBCHEM_CONFORMER_RMSD>
1.2

> <PUBCHEM_CONFORMER_DIVERSEORDER>
1
26
16
23
73
33
68
41
86
47
70
46
58
48
80
83
44
66
51
7
45
54
67
82
32
78
77
17
49
35
61
60
81
30
15
56
31
55
85
22
42
27
40
8
19
64
24
37
34
62
72
39
57
79
20
11
74
43
21
84
36
2
65
28
38
3
29
5
75
63
4
59
9
52
87
13
71
76
25
10
53
69
12
18
50
14
6

> <PUBCHEM_MMFF94_PARTIAL_CHARGES>
51
1 -0.57
10 0.27
11 0.27
12 0.27
13 0.41
14 0.27
15 -0.14
16 -0.15
17 -0.15
18 -0.15
19 -0.15
2 -0.81
20 0.09
21 0.54
22 0.12
23 0.1
24 -0.15
25 -0.14
26 -0.15
27 -0.15
28 0.14
29 0.72
3 -0.81
30 0.31
32 -0.15
33 0.16
34 -0.15
35 0.16
36 -0.15
37 0.17
38 0.14
4 -0.55
5 -0.6
52 0.15
53 0.15
54 0.15
55 0.15
56 0.37
57 0.15
58 0.15
59 0.15
6 -0.62
60 0.4
64 0.15
65 0.15
66 0.15
67 0.15
68 0.15
7 -0.62
8 -0.62
9 0.27

> <PUBCHEM_EFFECTIVE_ROTOR_COUNT>
9.2

> <PUBCHEM_PHARMACOPHORE_FEATURES>
13
1 1 acceptor
1 2 cation
1 3 cation
1 4 donor
1 5 donor
1 6 acceptor
1 8 acceptor
4 5 6 7 29 cation
6 15 16 17 18 19 20 rings
6 2 3 9 10 11 12 rings
6 22 23 24 25 26 27 rings
6 6 7 29 30 32 33 rings
6 8 31 34 35 36 37 rings

> <PUBCHEM_HEAVY_ATOM_COUNT>
38

> <PUBCHEM_ATOM_DEF_STEREO_COUNT>
0

> <PUBCHEM_ATOM_UDEF_STEREO_COUNT>
0

> <PUBCHEM_BOND_DEF_STEREO_COUNT>
0

> <PUBCHEM_BOND_UDEF_STEREO_COUNT>
0

> <PUBCHEM_ISOTOPIC_ATOM_COUNT>
0

> <PUBCHEM_COMPONENT_COUNT>
1

> <PUBCHEM_CACTVS_TAUTO_COUNT>
6

> <PUBCHEM_CONFORMER_ID>
017BE71900000001

> <PUBCHEM_MMFF94_ENERGY>
126.2018

> <PUBCHEM_FEATURE_SELFOVERLAP>
65.975

> <PUBCHEM_SHAPE_FINGERPRINT>
10254770 206 18336540611863768282
10290309 65 17831307099018491261
11135926 11 18261673671892243181
11136131 41 17616251824830659772
12202916 173 18201439220771816959
12218070 45 18335421261998213388
12788726 201 18409736183620247371
14017579 51 17691122635110291056
14461889 52 18131350796245421572
14659021 117 18341895212543559137
14725015 67 18340772663090703783
14747282 305 17532925005865525802
15274700 242 18334018272597957849
15320294 125 18113619005919722487
15328829 1 17531238479033481256
15351339 4 18334572435154085075
15400415 2 17907874898570376525
15927050 60 18124891058321922581
16112460 7 18187362087143546514
16719943 64 18335146414172104711
17627616 140 18262242093476029479
18738133 686 18115290178623453234
19311894 1 18194128645036315659
19611394 137 18201998859168452032
20775438 99 17048213366504021383
3383291 50 18409452513583419723
397830 11 17917710206553773804
42767 46 18040990757231486362
4616759 239 17775005635550168657
5080951 261 18261941999372667876
5085150 59 18411701006388390238
6376802 137 17846227673918352945

> <PUBCHEM_SHAPE_MULTIPOLES>
741.29
22.67
6.55
1.56
51.1
3.12
-0.3
-0.8
-6.86
-13.3
-2.78
3.23
-0.24
-2.1

> <PUBCHEM_SHAPE_SELFOVERLAP>
1607.473

> <PUBCHEM_SHAPE_VOLUME>
403.6

> <PUBCHEM_COORDINATE_TYPE>
2
5
10

$$$$
25235817
  -OEChem-01162405103D

 68 72  0     0  0  0  0  0  0999 V2000
   -0.8156    0.0015   -1.1146 O   0  0  0  0  0  0  0  0  0  0  0  0
    6.3173   -0.2344   -0.4943 N   0  0  0  0  0  0  0  0  0  0  0  0
    8.5664   -0.0206    1.3096 N   0  0  0  0  0  0  0  0  0  0  0  0
   -0.3688    2.1152   -0.1990 N   0  0  0  0  0  0  0  0  0  0  0  0
   -5.1829    1.4800   -0.0867 N   0  0  0  0  0  0  0  0  0  0  0  0
   -4.2832   -0.6715    0.1304 N   0  0  0  0  0  0  0  0  0  0  0  0
   -6.6055   -0.3494   -0.4269 N   0  0  0  0  0  0  0  0  0  0  0  0
   -2.1307   -4.8833    0.0030 N   0  0  0  0  0  0  0  0  0  0  0  0
    6.5319    0.9699    0.3171 C   0  0  0  0  0  0  0  0  0  0  0  0
    7.5987   -0.8852   -0.7937 C   0  0  0  0  0  0  0  0  0  0  0  0
    7.2850    0.6306    1.6079 C   0  0  0  0  0  0  0  0  0  0  0  0
    8.3531   -1.2242    0.4967 C   0  0  0  0  0  0  0  0  0  0  0  0
    5.5998    0.0901   -1.7256 C   0  0  0  0  0  0  0  0  0  0  0  0
    9.2825   -0.3464    2.5415 C   0  0  0  0  0  0  0  0  0  0  0  0
    4.1294    0.2993   -1.4793 C   0  0  0  0  0  0  0  0  0  0  0  0
    3.2929   -0.7983   -1.2760 C   0  0  0  0  0  0  0  0  0  0  0  0
    3.6036    1.5911   -1.4530 C   0  0  0  0  0  0  0  0  0  0  0  0
    1.9308   -0.6043   -1.0465 C   0  0  0  0  0  0  0  0  0  0  0  0
    2.2415    1.7851   -1.2237 C   0  0  0  0  0  0  0  0  0  0  0  0
    1.4052    0.6875   -1.0204 C   0  0  0  0  0  0  0  0  0  0  0  0
   -0.0150    0.8899   -0.7808 C   0  0  0  0  0  0  0  0  0  0  0  0
   -1.6608    2.5969    0.1255 C   0  0  0  0  0  0  0  0  0  0  0  0
   -4.0562    2.2877    0.1832 C   0  0  0  0  0  0  0  0  0  0  0  0
   -2.7842    1.8125   -0.1358 C   0  0  0  0  0  0  0  0  0  0  0  0
   -4.2047    3.5475    0.7634 C   0  0  0  0  0  0  0  0  0  0  0  0
   -1.8094    3.8565    0.7057 C   0  0  0  0  0  0  0  0  0  0  0  0
   -3.0814    4.3320    1.0247 C   0  0  0  0  0  0  0  0  0  0  0  0
   -5.5552    4.0811    1.1148 C   0  0  0  0  0  0  0  0  0  0  0  0
   -5.3662    0.0856   -0.1297 C   0  0  0  0  0  0  0  0  0  0  0  0
   -4.4944   -2.0031    0.0805 C   0  0  0  0  0  0  0  0  0  0  0  0
   -3.3362   -2.8180    0.3590 C   0  0  0  0  0  0  0  0  0  0  0  0
   -5.7157   -2.5754   -0.2119 C   0  0  0  0  0  0  0  0  0  0  0  0
   -6.7454   -1.6910   -0.4597 C   0  0  0  0  0  0  0  0  0  0  0  0
   -2.3331   -2.3709    1.2117 C   0  0  0  0  0  0  0  0  0  0  0  0
   -3.1888   -4.0705   -0.2151 C   0  0  0  0  0  0  0  0  0  0  0  0
   -1.2288   -3.1784    1.4608 C   0  0  0  0  0  0  0  0  0  0  0  0
   -1.1758   -4.4148    0.8374 C   0  0  0  0  0  0  0  0  0  0  0  0
    5.5754    1.4181    0.6079 H   0  0  0  0  0  0  0  0  0  0  0  0
    7.0920    1.7295   -0.2452 H   0  0  0  0  0  0  0  0  0  0  0  0
    8.2231   -0.2442   -1.4309 H   0  0  0  0  0  0  0  0  0  0  0  0
    7.4234   -1.8195   -1.3411 H   0  0  0  0  0  0  0  0  0  0  0  0
    6.6584   -0.0101    2.2434 H   0  0  0  0  0  0  0  0  0  0  0  0
    7.4628    1.5623    2.1587 H   0  0  0  0  0  0  0  0  0  0  0  0
    9.3204   -1.6641    0.2249 H   0  0  0  0  0  0  0  0  0  0  0  0
    7.7955   -1.9842    1.0610 H   0  0  0  0  0  0  0  0  0  0  0  0
    6.0406    0.9556   -2.2389 H   0  0  0  0  0  0  0  0  0  0  0  0
    5.6807   -0.7393   -2.4427 H   0  0  0  0  0  0  0  0  0  0  0  0
    9.4793    0.5611    3.1230 H   1  0  0  0  0  0  0  0  0  0  0  0
   10.2576   -0.7908    2.3131 H   1  0  0  0  0  0  0  0  0  0  0  0
    8.7241   -1.0465    3.1734 H   1  0  0  0  0  0  0  0  0  0  0  0
    3.6910   -1.8095   -1.2925 H   0  0  0  0  0  0  0  0  0  0  0  0
    4.2431    2.4543   -1.6176 H   0  0  0  0  0  0  0  0  0  0  0  0
    1.2974   -1.4729   -0.8847 H   0  0  0  0  0  0  0  0  0  0  0  0
    1.8729    2.8062   -1.2507 H   0  0  0  0  0  0  0  0  0  0  0  0
    0.3759    2.7513    0.0724 H   0  0  0  0  0  0  0  0  0  0  0  0
   -2.7057    0.8681   -0.6467 H   0  0  0  0  0  0  0  0  0  0  0  0
   -0.9425    4.4784    0.9142 H   0  0  0  0  0  0  0  0  0  0  0  0
   -3.1791    5.3160    1.4754 H   0  0  0  0  0  0  0  0  0  0  0  0
   -6.0572    1.9844   -0.1900 H   0  0  0  0  0  0  0  0  0  0  0  0
   -6.1450    4.2562    0.2091 H   0  0  0  0  0  0  0  0  0  0  0  0
   -6.0892    3.3840    1.7693 H   0  0  0  0  0  0  0  0  0  0  0  0
   -5.4879    5.0341    1.6511 H   0  0  0  0  0  0  0  0  0  0  0  0
   -5.9011   -3.6416   -0.2340 H   0  0  0  0  0  0  0  0  0  0  0  0
   -7.7432   -2.0470   -0.6935 H   0  0  0  0  0  0  0  0  0  0  0  0
   -2.3866   -1.4024    1.7026 H   0  0  0  0  0  0  0  0  0  0  0  0
   -3.9112   -4.4879   -0.9098 H   0  0  0  0  0  0  0  0  0  0  0  0
   -0.4351   -2.8509    2.1224 H   0  0  0  0  0  0  0  0  0  0  0  0
   -0.3357   -5.0823    0.9987 H   0  0  0  0  0  0  0  0  0  0  0  0
  1 21  2  0  0  0  0
  2  9  1  0  0  0  0
  2 10  1  0  0  0  0
  2 13  1  0  0  0  0
  3 11  1  0  0  0  0
  3 12  1  0  0  0  0
  3 14  1  0  0  0  0
  4 21  1  0  0  0  0
  4 22  1  0  0  0  0
  4 55  1  0  0  0  0
  5 23  1  0  0  0  0
  5 29  1  0  0  0  0
  5 59  1  0  0  0  0
  6 29  1  0  0  0  0
  6 30  2  0  0  0  0
  7 29  2  0  0  0  0
  7 33  1  0  0  0  0
  8 35  1  0  0  0  0
  8 37  2  0  0  0  0
  9 11  1  0  0  0  0
  9 38  1  0  0  0  0
  9 39  1  0  0  0  0
 10 12  1  0  0  0  0
 10 40  1  0  0  0  0
 10 41  1  0  0  0  0
 11 42  1  0  0  0  0
 11 43  1  0  0  0  0
 12 44  1  0  0  0  0
 12 45  1  0  0  0  0
 13 15  1  0  0  0  0
 13 46  1  0  0  0  0
 13 47  1  0  0  0  0
 14 48  1  0  0  0  0
 14 49  1  0  0  0  0
 14 50  1  0  0  0  0
 15 16  2  0  0  0  0
 15 17  1  0  0  0  0
 16 18  1  0  0  0  0
 16 51  1  0  0  0  0
 17 19  2  0  0  0  0
 17 52  1  0  0  0  0
 18 20  2  0  0  0  0
 18 53  1  0  0  0  0
 19 20  1  0  0  0  0
 19 54  1  0  0  0  0
 20 21  1  0  0  0  0
 22 24  2  0  0  0  0
 22 26  1  0  0  0  0
 23 24  1  0  0  0  0
 23 25  2  0  0  0  0
 24 56  1  0  0  0  0
 25 27  1  0  0  0  0
 25 28  1  0  0  0  0
 26 27  2  0  0  0  0
 26 57  1  0  0  0  0
 27 58  1  0  0  0  0
 28 60  1  0  0  0  0
 28 61  1  0  0  0  0
 28 62  1  0  0  0  0
 30 31  1  0  0  0  0
 30 32  1  0  0  0  0
 31 34  1  0  0  0  0
 31 35  2  0  0  0  0
 32 33  2  0  0  0  0
 32 63  1  0  0  0  0
 33 64  1  0  0  0  0
 34 36  2  0  0  0  0
 34 65  1  0  0  0  0
 35 66  1  0  0  0  0
 36 37  1  0  0  0  0
 36 67  1  0  0  0  0
 37 68  1  0  0  0  0
M  ISO  3  48   2  49   2  50   2
M  END
> <PUBCHEM_COMPOUND_CID>
25235817

> <PUBCHEM_CONFORMER_RMSD>
1

> <PUBCHEM_CONFORMER_DIVERSEORDER>
1
125
103
27
45
69
154
171
88
59
33
149
39
54
65
90
67
97
32
117
50
46
142
159
75
96
121
132
162
127
51
131
41
152
172
135
126
106
35
76
102
37
113
99
146
124
72
139
151
87
80
93
40
168
123
158
98
160
169
77
122
42
82
166
73
49
84
144
137
133
71
100
143
44
155
148
24
167
116
161
147
53
85
128
110
79
145
115
119
104
23
48
95
150
43
94
68
78
92
134
118
29
56
153
86
34
47
156
4
157
83
163
13
55
20
25
17
141
74
89
101
138
6
165
120
38
52
170
91
12
21
30
129
66
81
111
8
57
14
26
107
15
63
70
3
31
5
140
19
109
105
2
112
62
130
61
114
16
108
10
11
60
164
58
136
9
18
173
64
36
28
22
7

> <PUBCHEM_MMFF94_PARTIAL_CHARGES>
51
1 -0.57
10 0.27
11 0.27
12 0.27
13 0.41
14 0.27
15 -0.14
16 -0.15
17 -0.15
18 -0.15
19 -0.15
2 -0.81
20 0.09
21 0.54
22 0.12
23 0.1
24 -0.15
25 -0.14
26 -0.15
27 -0.15
28 0.14
29 0.72
3 -0.81
30 0.31
32 -0.15
33 0.16
34 -0.15
35 0.16
36 -0.15
37 0.16
4 -0.55
5 -0.6
51 0.15
52 0.15
53 0.15
54 0.15
55 0.37
56 0.15
57 0.15
58 0.15
59 0.4
6 -0.62
63 0.15
64 0.15
65 0.15
66 0.15
67 0.15
68 0.15
7 -0.62
8 -0.62
9 0.27

> <PUBCHEM_EFFECTIVE_ROTOR_COUNT>
9.2

> <PUBCHEM_PHARMACOPHORE_FEATURES>
13
1 1 acceptor
1 2 cation
1 3 cation
1 4 donor
1 5 donor
1 6 acceptor
1 8 acceptor
4 5 6 7 29 cation
6 15 16 17 18 19 20 rings
6 2 3 9 10 11 12 rings
6 22 23 24 25 26 27 rings
6 6 7 29 30 32 33 rings
6 8 31 34 35 36 37 rings

> <PUBCHEM_HEAVY_ATOM_COUNT>
37

> <PUBCHEM_ATOM_DEF_STEREO_COUNT>
0

> <PUBCHEM_ATOM_UDEF_STEREO_COUNT>
0

> <PUBCHEM_BOND_DEF_STEREO_COUNT>
0

> <PUBCHEM_BOND_UDEF_STEREO_COUNT>
0

> <PUBCHEM_ISOTOPIC_ATOM_COUNT>
3

> <PUBCHEM_COMPONENT_COUNT>
1

> <PUBCHEM_CACTVS_TAUTO_COUNT>
6

> <PUBCHEM_CONFORMER_ID>
0181116900000001

> <PUBCHEM_MMFF94_ENERGY>
124.475

> <PUBCHEM_FEATURE_SELFOVERLAP>
65.975

> <PUBCHEM_SHAPE_FINGERPRINT>
10254770 206 18336823186199216810
10290309 65 17831589669391223437
11136131 41 17615689974373003036
12202916 173 18201439216545492903
12498461 61 18187919540403888650
12788726 201 18409173229408847043
14461889 52 18131069321268561484
14659021 117 18413389852343570049
14725015 67 18341055233331573671
14747282 305 17460585932550716626
15021287 119 16732991915981058508
15183329 4 17603304882086671854
15274700 242 18261397728632923905
15320294 125 18113620101231367495
15328829 1 17530956999761673408
15351339 4 18334008377183458523
15400415 2 17907310849078914717
15927050 60 18124891054090239285
16112460 7 18113897118227359698
18738133 686 18042669634632123522
19611394 137 18201717379886140112
20775438 99 17120550223657994823
23559900 14 18124034800503753861
3383291 50 18409453608947818755
397830 11 17989204850664517812
4073 2 18341056238153448244
42767 46 18040427802993647322
4616759 239 17846216601213102241
5080951 261 18261660524316732004
5085150 59 18411419522769023438
6376802 137 17918003788710918225

> <PUBCHEM_SHAPE_MULTIPOLES>
720.71
23.29
5.93
1.57
52.43
1.35
-0.35
2.3
-7.73
-13.78
-2.32
3.45
-0.1
-1.62

> <PUBCHEM_SHAPE_SELFOVERLAP>
1565.867

> <PUBCHEM_SHAPE_VOLUME>
390.8

> <PUBCHEM_COORDINATE_TYPE>
2
5
10

$$$$
9822042
  -OEChem-01162405103D

 51 54  0     0  0  0  0  0  0999 V2000
    1.0992    0.1112    0.8138 O   0  0  0  0  0  0  0  0  0  0  0  0
   -3.2243   -1.7063    0.4792 N   0  0  0  0  0  0  0  0  0  0  0  0
    1.5669   -1.9823   -0.1369 N   0  0  0  0  0  0  0  0  0  0  0  0
   -2.5390    0.5065    0.1050 N   0  0  0  0  0  0  0  0  0  0  0  0
   -4.7179    0.0228    1.0136 N   0  0  0  0  0  0  0  0  0  0  0  0
   -0.7293    4.8724   -0.1466 N   0  0  0  0  0  0  0  0  0  0  0  0
   -2.0917   -2.4328    0.0498 C   0  0  0  0  0  0  0  0  0  0  0  0
   -2.2274   -3.7128   -0.4875 C   0  0  0  0  0  0  0  0  0  0  0  0
    0.2825   -2.5682   -0.2547 C   0  0  0  0  0  0  0  0  0  0  0  0
   -0.8271   -1.8560    0.1670 C   0  0  0  0  0  0  0  0  0  0  0  0
   -1.0984   -4.4163   -0.9074 C   0  0  0  0  0  0  0  0  0  0  0  0
    0.1662   -3.8395   -0.7901 C   0  0  0  0  0  0  0  0  0  0  0  0
   -3.5695   -4.3549   -0.6233 C   0  0  0  0  0  0  0  0  0  0  0  0
    3.3217   -0.3836    0.3376 C   0  0  0  0  0  0  0  0  0  0  0  0
    1.9073   -0.7208    0.3708 C   0  0  0  0  0  0  0  0  0  0  0  0
   -3.5068   -0.3290    0.5351 C   0  0  0  0  0  0  0  0  0  0  0  0
    6.0350    0.2620    0.2774 C   0  0  0  0  0  0  0  0  0  0  0  0
    3.7193    0.9514    0.2695 C   0  0  0  0  0  0  0  0  0  0  0  0
    4.2806   -1.3961    0.3756 C   0  0  0  0  0  0  0  0  0  0  0  0
   -2.8431    1.8192    0.1727 C   0  0  0  0  0  0  0  0  0  0  0  0
    5.0760    1.2743    0.2393 C   0  0  0  0  0  0  0  0  0  0  0  0
    5.6373   -1.0731    0.3455 C   0  0  0  0  0  0  0  0  0  0  0  0
   -1.8077    2.7127   -0.2886 C   0  0  0  0  0  0  0  0  0  0  0  0
   -4.0468    2.3042    0.6421 C   0  0  0  0  0  0  0  0  0  0  0  0
    7.4854    0.6079    0.2441 C   0  0  0  0  0  0  0  0  0  0  0  0
   -4.9551    1.3505    1.0534 C   0  0  0  0  0  0  0  0  0  0  0  0
   -0.9132    2.3238   -1.2800 C   0  0  0  0  0  0  0  0  0  0  0  0
   -1.6742    3.9865    0.2409 C   0  0  0  0  0  0  0  0  0  0  0  0
    0.0727    3.2074   -1.7052 C   0  0  0  0  0  0  0  0  0  0  0  0
    0.1216    4.4588   -1.1122 C   0  0  0  0  0  0  0  0  0  0  0  0
   -0.7491   -0.8982    0.6496 H   0  0  0  0  0  0  0  0  0  0  0  0
   -1.1859   -5.4150   -1.3272 H   0  0  0  0  0  0  0  0  0  0  0  0
    1.0389   -4.3962   -1.1199 H   0  0  0  0  0  0  0  0  0  0  0  0
   -4.0312   -2.2727    0.7196 H   0  0  0  0  0  0  0  0  0  0  0  0
    2.3081   -2.5632   -0.5183 H   0  0  0  0  0  0  0  0  0  0  0  0
   -3.9998   -4.5544    0.3636 H   0  0  0  0  0  0  0  0  0  0  0  0
   -4.2494   -3.7148   -1.1954 H   0  0  0  0  0  0  0  0  0  0  0  0
   -3.5098   -5.3115   -1.1542 H   0  0  0  0  0  0  0  0  0  0  0  0
    2.9890    1.7557    0.2340 H   0  0  0  0  0  0  0  0  0  0  0  0
    4.0226   -2.4466    0.4699 H   0  0  0  0  0  0  0  0  0  0  0  0
    5.3736    2.3183    0.1867 H   0  0  0  0  0  0  0  0  0  0  0  0
    6.3755   -1.8698    0.3862 H   0  0  0  0  0  0  0  0  0  0  0  0
   -4.3092    3.3536    0.6810 H   0  0  0  0  0  0  0  0  0  0  0  0
    8.0701   -0.1848   -0.2349 H   0  0  0  0  0  0  0  0  0  0  0  0
    7.6597    1.5248   -0.3291 H   0  0  0  0  0  0  0  0  0  0  0  0
    7.8602    0.7535    1.2620 H   0  0  0  0  0  0  0  0  0  0  0  0
   -5.9306    1.6354    1.4328 H   0  0  0  0  0  0  0  0  0  0  0  0
   -0.9639    1.3426   -1.7455 H   0  0  0  0  0  0  0  0  0  0  0  0
   -2.3134    4.3641    1.0330 H   0  0  0  0  0  0  0  0  0  0  0  0
    0.7800    2.9259   -2.4769 H   0  0  0  0  0  0  0  0  0  0  0  0
    0.8718    5.1845   -1.4084 H   0  0  0  0  0  0  0  0  0  0  0  0
  1 15  2  0  0  0  0
  2  7  1  0  0  0  0
  2 16  1  0  0  0  0
  2 34  1  0  0  0  0
  3  9  1  0  0  0  0
  3 15  1  0  0  0  0
  3 35  1  0  0  0  0
  4 16  1  0  0  0  0
  4 20  2  0  0  0  0
  5 16  2  0  0  0  0
  5 26  1  0  0  0  0
  6 28  1  0  0  0  0
  6 30  2  0  0  0  0
  7  8  2  0  0  0  0
  7 10  1  0  0  0  0
  8 11  1  0  0  0  0
  8 13  1  0  0  0  0
  9 10  2  0  0  0  0
  9 12  1  0  0  0  0
 10 31  1  0  0  0  0
 11 12  2  0  0  0  0
 11 32  1  0  0  0  0
 12 33  1  0  0  0  0
 13 36  1  0  0  0  0
 13 37  1  0  0  0  0
 13 38  1  0  0  0  0
 14 15  1  0  0  0  0
 14 18  2  0  0  0  0
 14 19  1  0  0  0  0
 17 21  2  0  0  0  0
 17 22  1  0  0  0  0
 17 25  1  0  0  0  0
 18 21  1  0  0  0  0
 18 39  1  0  0  0  0
 19 22  2  0  0  0  0
 19 40  1  0  0  0  0
 20 23  1  0  0  0  0
 20 24  1  0  0  0  0
 21 41  1  0  0  0  0
 22 42  1  0  0  0  0
 23 27  1  0  0  0  0
 23 28  2  0  0  0  0
 24 26  2  0  0  0  0
 24 43  1  0  0  0  0
 25 44  1  0  0  0  0
 25 45  1  0  0  0  0
 25 46  1  0  0  0  0
 26 47  1  0  0  0  0
 27 29  2  0  0  0  0
 27 48  1  0  0  0  0
 28 49  1  0  0  0  0
 29 30  1  0  0  0  0
 29 50  1  0  0  0  0
 30 51  1  0  0  0  0
M  END
> <PUBCHEM_COMPOUND_CID>
9822042

> <PUBCHEM_CONFORMER_RMSD>
0.8

> <PUBCHEM_CONFORMER_DIVERSEORDER>
1
165
103
106
30
111
154
178
135
175
95
131
133
127
164
128
104
105
145
70
122
136
74
167
80
71
89
99
180
130
179
81
66
100
25
177
109
174
62
10
139
102
49
120
75
151
150
117
32
137
36
5
173
166
79
22
157
97
24
114
63
155
76
53
169
73
115
134
54
68
69
146
163
21
19
143
112
152
31
181
12
156
85
20
153
110
159
59
56
45
101
149
162
14
113
142
92
132
183
182
171
94
37
43
98
121
172
118
93
50
147
17
160
88
46
33
170
168
116
141
39
47
42
148
90
84
129
26
161
125
83
158
41
44
176
2
60
119
108
55
4
144
107
72
52
11
28
78
86
123
82
138
57
87
65
3
40
96
48
77
34
61
15
51
91
35
23
140
67
124
126
58
38
64
9
7
29
27
16
6
18
13
8

> <PUBCHEM_MMFF94_PARTIAL_CHARGES>
44
1 -0.57
10 -0.15
11 -0.15
12 -0.15
13 0.14
14 0.09
15 0.54
16 0.72
17 -0.14
18 -0.15
19 -0.15
2 -0.6
20 0.31
21 -0.15
22 -0.15
24 -0.15
25 0.14
26 0.16
27 -0.15
28 0.16
29 -0.15
3 -0.55
30 0.16
31 0.15
32 0.15
33 0.15
34 0.4
35 0.37
39 0.15
4 -0.62
40 0.15
41 0.15
42 0.15
43 0.15
47 0.15
48 0.15
49 0.15
5 -0.62
50 0.15
51 0.15
6 -0.62
7 0.1
8 -0.14
9 0.12

> <PUBCHEM_EFFECTIVE_ROTOR_COUNT>
6

> <PUBCHEM_PHARMACOPHORE_FEATURES>
10
1 1 acceptor
1 2 donor
1 3 donor
1 4 acceptor
1 6 acceptor
4 2 4 5 16 cation
6 14 17 18 19 21 22 rings
6 4 5 16 20 24 26 rings
6 6 23 27 28 29 30 rings
6 7 8 9 10 11 12 rings

> <PUBCHEM_HEAVY_ATOM_COUNT>
30

> <PUBCHEM_ATOM_DEF_STEREO_COUNT>
0

> <PUBCHEM_ATOM_UDEF_STEREO_COUNT>
0

> <PUBCHEM_BOND_DEF_STEREO_COUNT>
0

> <PUBCHEM_BOND_UDEF_STEREO_COUNT>
0

> <PUBCHEM_ISOTOPIC_ATOM_COUNT>
0

> <PUBCHEM_COMPONENT_COUNT>
1

> <PUBCHEM_CACTVS_TAUTO_COUNT>
6

> <PUBCHEM_CONFORMER_ID>
0095DF5A00000001

> <PUBCHEM_MMFF94_ENERGY>
109.1692

> <PUBCHEM_FEATURE_SELFOVERLAP>
50.747

> <PUBCHEM_SHAPE_FINGERPRINT>
10006869 2 18044082472069731811
10087517 78 18338228388625279874
10165383 225 18202006495382414435
10411042 1 17837206348543237047
1100329 8 18193841664011089047
11014199 57 17978789348301805458
11513181 2 17982745356931241036
12677640 9 18272936068301179073
12788726 201 18188477065285743562
13402501 40 18339362967907069592
13773456 30 17612855016330789652
138480 1 16538481389745420566
13911987 19 18263342730237252493
140371 6 17834388300071753522
14068700 675 17914884564607024295
14117953 113 18409450258957380125
14395042 24 18337960116573742531
15320467 1 18411419479961573744
15876981 60 18189618409404456830
18336668 15 17967816088969950181
19611394 137 18042702765603474643
20771845 165 18270976635274556694
21796203 349 17829087429976012449
22113638 7 18409171047444102429
229767 44 18410578378961069296
23559900 14 17619335950097508210
24771293 8 18270971146617452249
25019877 29 17775573052491117319
3504750 166 18267564936862244034
469060 322 16370725903098646900
474144 1 17750821980223339820
5047190 48 18411705366038093454
50677037 204 18267857462224824104
552612 73 18057594577266025776
6287921 2 17831881056766805173
6700243 42 17625577788046667550
7399639 24 18049731719879175195
7808743 9 18412823581953388770

> <PUBCHEM_SHAPE_MULTIPOLES>
586.61
11.89
7
1.03
21.45
0.4
-0.23
0.81
3.96
-7.39
-2.91
-0.48
0.45
-0.98

> <PUBCHEM_SHAPE_SELFOVERLAP>
1290.515

> <PUBCHEM_SHAPE_VOLUME>
313.2

> <PUBCHEM_COORDINATE_TYPE>
2
5
10

$$$$
9827642
  -OEChem-01162405103D

 69 73  0     0  0  0  0  0  0999 V2000
   -0.8068    0.1285   -1.1209 O   0  0  0  0  0  0  0  0  0  0  0  0
   -0.8082    2.8089    2.3230 O   0  5  0  0  0  0  0  0  0  0  0  0
    6.4773    0.1786   -0.7169 N   0  0  0  0  0  0  0  0  0  0  0  0
    8.5299   -0.1560    1.2914 N   0  0  0  0  0  0  0  0  0  0  0  0
   -0.0839   -1.9131   -0.2185 N   0  0  0  0  0  0  0  0  0  0  0  0
   -4.9216   -1.9800   -0.2660 N   0  0  0  0  0  0  0  0  0  0  0  0
   -4.3571    0.2808    0.0102 N   0  0  0  0  0  0  0  0  0  0  0  0
   -6.5873   -0.3683   -0.6320 N   0  0  0  0  0  0  0  0  0  0  0  0
   -1.7384    3.1225    1.5120 N   0  3  0  0  0  0  0  0  0  0  0  0
    7.8688    0.5674   -0.9774 C   0  0  0  0  0  0  0  0  0  0  0  0
    6.1710    0.2997    0.7137 C   0  0  0  0  0  0  0  0  0  0  0  0
    8.8366   -0.2750   -0.1392 C   0  0  0  0  0  0  0  0  0  0  0  0
    7.1381   -0.5438    1.5515 C   0  0  0  0  0  0  0  0  0  0  0  0
    5.5553    0.9839   -1.5153 C   0  0  0  0  0  0  0  0  0  0  0  0
    9.4513   -0.9630    2.0888 C   0  0  0  0  0  0  0  0  0  0  0  0
    4.1246    0.5575   -1.3199 C   0  0  0  0  0  0  0  0  0  0  0  0
    3.8060   -0.7932   -1.3311 C   0  0  0  0  0  0  0  0  0  0  0  0
    3.1442    1.5218   -1.1322 C   0  0  0  0  0  0  0  0  0  0  0  0
    2.4802   -1.1877   -1.1512 C   0  0  0  0  0  0  0  0  0  0  0  0
    1.8184    1.1274   -0.9520 C   0  0  0  0  0  0  0  0  0  0  0  0
    1.4864   -0.2273   -0.9616 C   0  0  0  0  0  0  0  0  0  0  0  0
    0.1045   -0.6391   -0.7720 C   0  0  0  0  0  0  0  0  0  0  0  0
   -1.3008   -2.5840    0.0564 C   0  0  0  0  0  0  0  0  0  0  0  0
   -3.6979   -2.6187    0.0333 C   0  0  0  0  0  0  0  0  0  0  0  0
   -2.4999   -1.9573   -0.2364 C   0  0  0  0  0  0  0  0  0  0  0  0
   -3.6786   -3.8967    0.5917 C   0  0  0  0  0  0  0  0  0  0  0  0
   -1.2632   -3.8520    0.6107 C   0  0  0  0  0  0  0  0  0  0  0  0
   -2.4612   -4.5134    0.8806 C   0  0  0  0  0  0  0  0  0  0  0  0
   -4.9467   -4.6274    0.8921 C   0  0  0  0  0  0  0  0  0  0  0  0
   -5.3063   -0.6270   -0.2975 C   0  0  0  0  0  0  0  0  0  0  0  0
   -4.7602    1.5677   -0.0297 C   0  0  0  0  0  0  0  0  0  0  0  0
   -3.7440    2.5387    0.2985 C   0  0  0  0  0  0  0  0  0  0  0  0
   -6.0421    1.9599   -0.3575 C   0  0  0  0  0  0  0  0  0  0  0  0
   -6.9220    0.9387   -0.6522 C   0  0  0  0  0  0  0  0  0  0  0  0
   -2.7215    2.2090    1.1836 C   0  0  0  0  0  0  0  0  0  0  0  0
   -3.7747    3.8111   -0.2641 C   0  0  0  0  0  0  0  0  0  0  0  0
   -2.7903    4.7384    0.0595 C   0  0  0  0  0  0  0  0  0  0  0  0
   -1.7799    4.3826    0.9468 C   0  0  0  0  0  0  0  0  0  0  0  0
    8.1053    0.4110   -2.0369 H   0  0  0  0  0  0  0  0  0  0  0  0
    8.0257    1.6329   -0.7613 H   0  0  0  0  0  0  0  0  0  0  0  0
    6.2288    1.3486    1.0363 H   0  0  0  0  0  0  0  0  0  0  0  0
    5.1625   -0.0534    0.9530 H   0  0  0  0  0  0  0  0  0  0  0  0
    8.7891   -1.3234   -0.4640 H   0  0  0  0  0  0  0  0  0  0  0  0
    9.8567    0.0798   -0.3303 H   0  0  0  0  0  0  0  0  0  0  0  0
    6.9033   -0.3871    2.6114 H   0  0  0  0  0  0  0  0  0  0  0  0
    6.9808   -1.6094    1.3357 H   0  0  0  0  0  0  0  0  0  0  0  0
    5.6720    2.0497   -1.2765 H   0  0  0  0  0  0  0  0  0  0  0  0
    5.7852    0.8700   -2.5827 H   0  0  0  0  0  0  0  0  0  0  0  0
   10.4853   -0.6399    1.9254 H   0  0  0  0  0  0  0  0  0  0  0  0
    9.3818   -2.0303    1.8496 H   0  0  0  0  0  0  0  0  0  0  0  0
    9.2474   -0.8353    3.1577 H   0  0  0  0  0  0  0  0  0  0  0  0
    4.5615   -1.5556   -1.4996 H   0  0  0  0  0  0  0  0  0  0  0  0
    3.3900    2.5799   -1.1223 H   0  0  0  0  0  0  0  0  0  0  0  0
    2.2651   -2.2506   -1.2078 H   0  0  0  0  0  0  0  0  0  0  0  0
    1.0601    1.8914   -0.7998 H   0  0  0  0  0  0  0  0  0  0  0  0
    0.7381   -2.4373    0.0690 H   0  0  0  0  0  0  0  0  0  0  0  0
   -2.5472   -1.0040   -0.7318 H   0  0  0  0  0  0  0  0  0  0  0  0
   -0.3205   -4.3415    0.8389 H   0  0  0  0  0  0  0  0  0  0  0  0
   -2.4278   -5.5090    1.3151 H   0  0  0  0  0  0  0  0  0  0  0  0
   -5.7085   -2.6052   -0.4057 H   0  0  0  0  0  0  0  0  0  0  0  0
   -5.5967   -4.0268    1.5371 H   0  0  0  0  0  0  0  0  0  0  0  0
   -4.7573   -5.5694    1.4185 H   0  0  0  0  0  0  0  0  0  0  0  0
   -5.4765   -4.8711   -0.0347 H   0  0  0  0  0  0  0  0  0  0  0  0
   -6.3831    2.9870   -0.3712 H   0  0  0  0  0  0  0  0  0  0  0  0
   -7.9531    1.1487   -0.9154 H   0  0  0  0  0  0  0  0  0  0  0  0
   -2.6109    1.2535    1.6786 H   0  0  0  0  0  0  0  0  0  0  0  0
   -4.5357    4.1126   -0.9788 H   0  0  0  0  0  0  0  0  0  0  0  0
   -2.8052    5.7306   -0.3803 H   0  0  0  0  0  0  0  0  0  0  0  0
   -0.9802    5.0441    1.2463 H   0  0  0  0  0  0  0  0  0  0  0  0
  1 22  2  0  0  0  0
  2  9  1  0  0  0  0
  3 10  1  0  0  0  0
  3 11  1  0  0  0  0
  3 14  1  0  0  0  0
  4 12  1  0  0  0  0
  4 13  1  0  0  0  0
  4 15  1  0  0  0  0
  5 22  1  0  0  0  0
  5 23  1  0  0  0  0
  5 56  1  0  0  0  0
  6 24  1  0  0  0  0
  6 30  1  0  0  0  0
  6 60  1  0  0  0  0
  7 30  1  0  0  0  0
  7 31  2  0  0  0  0
  8 30  2  0  0  0  0
  8 34  1  0  0  0  0
  9 35  1  0  0  0  0
  9 38  2  0  0  0  0
 10 12  1  0  0  0  0
 10 39  1  0  0  0  0
 10 40  1  0  0  0  0
 11 13  1  0  0  0  0
 11 41  1  0  0  0  0
 11 42  1  0  0  0  0
 12 43  1  0  0  0  0
 12 44  1  0  0  0  0
 13 45  1  0  0  0  0
 13 46  1  0  0  0  0
 14 16  1  0  0  0  0
 14 47  1  0  0  0  0
 14 48  1  0  0  0  0
 15 49  1  0  0  0  0
 15 50  1  0  0  0  0
 15 51  1  0  0  0  0
 16 17  2  0  0  0  0
 16 18  1  0  0  0  0
 17 19  1  0  0  0  0
 17 52  1  0  0  0  0
 18 20  2  0  0  0  0
 18 53  1  0  0  0  0
 19 21  2  0  0  0  0
 19 54  1  0  0  0  0
 20 21  1  0  0  0  0
 20 55  1  0  0  0  0
 21 22  1  0  0  0  0
 23 25  2  0  0  0  0
 23 27  1  0  0  0  0
 24 25  1  0  0  0  0
 24 26  2  0  0  0  0
 25 57  1  0  0  0  0
 26 28  1  0  0  0  0
 26 29  1  0  0  0  0
 27 28  2  0  0  0  0
 27 58  1  0  0  0  0
 28 59  1  0  0  0  0
 29 61  1  0  0  0  0
 29 62  1  0  0  0  0
 29 63  1  0  0  0  0
 31 32  1  0  0  0  0
 31 33  1  0  0  0  0
 32 35  2  0  0  0  0
 32 36  1  0  0  0  0
 33 34  2  0  0  0  0
 33 64  1  0  0  0  0
 34 65  1  0  0  0  0
 35 66  1  0  0  0  0
 36 37  2  0  0  0  0
 36 67  1  0  0  0  0
 37 38  1  0  0  0  0
 37 68  1  0  0  0  0
 38 69  1  0  0  0  0
M  CHG  2   2  -1   9   1
M  END
> <PUBCHEM_COMPOUND_CID>
9827642

> <PUBCHEM_CONFORMER_RMSD>
1

> <PUBCHEM_CONFORMER_DIVERSEORDER>
1
201
383
135
213
365
226
297
275
333
372
192
252
414
222
72
386
427
76
51
300
367
202
59
391
125
273
291
326
302
228
199
158
348
293
314
149
219
270
171
141
232
318
377
169
129
162
243
345
165
261
425
49
325
311
224
269
207
204
218
430
323
107
330
11
249
371
346
130
128
254
260
295
417
69
307
375
246
113
384
316
70
315
306
225
47
221
340
180
355
364
337
416
27
208
143
184
304
111
4
381
400
296
388
200
239
214
395
80
90
327
309
174
294
352
359
267
258
96
167
419
424
397
54
403
422
298
178
376
170
236
278
247
242
313
301
136
401
151
86
77
67
26
262
154
81
366
223
116
264
144
108
280
324
312
7
339
115
253
38
176
369
197
240
272
374
138
319
410
216
287
229
277
299
385
185
250
289
21
358
166
32
285
87
349
3
248
271
343
44
68
177
152
259
423
408
110
139
286
156
361
288
344
357
157
140
181
172
168
328
406
370
231
245
290
18
281
34
84
351
65
362
195
93
187
37
122
363
114
131
409
182
105
9
227
234
85
404
276
147
94
193
255
235
241
29
354
74
378
101
57
36
283
230
79
321
390
412
251
399
238
244
434
426
112
160
413
274
308
61
82
305
63
42
394
163
60
24
405
331
209
64
217
106
380
83
123
148
92
284
95
196
2
418
190
159
146
338
233
126
173
164
175
58
292
353
75
43
347
428
119
360
212
121
206
155
268
411
150
279
100
322
88
189
45
265
25
120
183
373
256
99
420
389
19
30
329
55
334
14
393
62
153
10
282
71
145
35
257
28
6
320
433
56
117
432
48
407
31
237
392
356
421
8
98
53
429
336
104
5
161
205
341
398
66
97
396
402
211
78
127
124
203
220
350
46
415
188
431
310
198
109
186
379
335
317
39
12
387
303
368
263
179
215
73
16
133
22
132
134
103
91
194
191
89
52
50
40
210
266
137
142
41
382
33
342
332
23
118
102
17
13
20
15

> <PUBCHEM_MMFF94_PARTIAL_CHARGES>
52
1 -0.57
10 0.27
11 0.27
12 0.27
13 0.27
14 0.41
15 0.27
16 -0.14
17 -0.15
18 -0.15
19 -0.15
2 -0.75
20 -0.15
21 0.09
22 0.54
23 0.12
24 0.1
25 -0.15
26 -0.14
27 -0.15
28 -0.15
29 0.14
3 -0.81
30 0.72
31 0.31
33 -0.15
34 0.16
35 -0.06
36 -0.15
37 -0.15
38 -0.06
4 -0.81
5 -0.55
52 0.15
53 0.15
54 0.15
55 0.15
56 0.37
57 0.15
58 0.15
59 0.15
6 -0.6
60 0.4
64 0.15
65 0.15
66 0.15
67 0.15
68 0.15
69 0.15
7 -0.62
8 -0.62
9 0.57

> <PUBCHEM_EFFECTIVE_ROTOR_COUNT>
9.2

> <PUBCHEM_PHARMACOPHORE_FEATURES>
13
1 1 acceptor
1 2 anion
1 3 cation
1 4 cation
1 5 donor
1 6 donor
1 7 acceptor
4 6 7 8 30 cation
6 16 17 18 19 20 21 rings
6 23 24 25 26 27 28 rings
6 3 4 10 11 12 13 rings
6 7 8 30 31 33 34 rings
6 9 32 35 36 37 38 rings

> <PUBCHEM_HEAVY_ATOM_COUNT>
38

> <PUBCHEM_ATOM_DEF_STEREO_COUNT>
0

> <PUBCHEM_ATOM_UDEF_STEREO_COUNT>
0

> <PUBCHEM_BOND_DEF_STEREO_COUNT>
0

> <PUBCHEM_BOND_UDEF_STEREO_COUNT>
0

> <PUBCHEM_ISOTOPIC_ATOM_COUNT>
0

> <PUBCHEM_COMPONENT_COUNT>
1

> <PUBCHEM_CACTVS_TAUTO_COUNT>
6

> <PUBCHEM_CONFORMER_ID>
0095F53A00000001

> <PUBCHEM_MMFF94_ENERGY>
128.7168

> <PUBCHEM_FEATURE_SELFOVERLAP>
65.974

> <PUBCHEM_SHAPE_FINGERPRINT>
100830 39 18410016533162675772
10951579 204 18196674925288085908
11007060 377 18268723718193912774
11136131 41 18044092345878422194
11621639 254 13398620689441086442
12104220 1 18409727352751028861
12107183 9 18113896065965321798
12128747 34 18201723899598665334
12144603 126 17822295713245757334
12202916 173 18202842150210952117
12788726 201 18411984654655073067
13947947 74 18271524201066742185
15021287 119 16588025714706157254
15328684 2 18187920643814591672
15328829 1 17895187792968462768
15351339 4 18337948996655207299
15400415 2 17761787164764003669
15776043 110 17894630318908563474
15890870 6 18334574621555630853
16112460 7 18113614539549536066
19611394 137 18201998846257059448
21133410 221 17844223294022133056
21639891 77 18201723989503127424
21792964 463 17535484930537817972
23522609 53 17532114802986421180
23569943 247 16516504674222557210
3504750 166 18339357582377257422
42626532 9 17973733772235614979
5047190 69 18343578555717861584
6201320 215 18130499731069061672
6371009 1 18409170986903604036
9981440 41 18191037707433754265

> <PUBCHEM_SHAPE_MULTIPOLES>
735.42
23.18
5.98
1.52
55.41
0.9
-0.48
0.96
-4.13
-14.2
-2.6
2.56
-0.43
-0.87

> <PUBCHEM_SHAPE_SELFOVERLAP>
1599.028

> <PUBCHEM_SHAPE_VOLUME>
399.2

> <PUBCHEM_COORDINATE_TYPE>
2
5
10

$$$$
73348902
  -OEChem-01162405103D

 67 71  0     0  0  0  0  0  0999 V2000
   10.4513    0.4471   -1.7439 O   0  0  0  0  0  0  0  0  0  0  0  0
   -1.1242   -0.0029    1.1360 O   0  0  0  0  0  0  0  0  0  0  0  0
    6.0201    0.2245    0.6435 N   0  0  0  0  0  0  0  0  0  0  0  0
    8.2074    0.1016   -1.1764 N   0  0  0  0  0  0  0  0  0  0  0  0
   -0.6638   -2.1169    0.2277 N   0  0  0  0  0  0  0  0  0  0  0  0
   -5.4735   -1.4739    0.0301 N   0  0  0  0  0  0  0  0  0  0  0  0
   -4.5672    0.6767   -0.1725 N   0  0  0  0  0  0  0  0  0  0  0  0
   -6.8987    0.3573    0.3474 N   0  0  0  0  0  0  0  0  0  0  0  0
   -2.4139    4.8872   -0.0176 N   0  0  0  0  0  0  0  0  0  0  0  0
    7.2982    0.8748    0.9751 C   0  0  0  0  0  0  0  0  0  0  0  0
    6.2487   -0.9871   -0.1603 C   0  0  0  0  0  0  0  0  0  0  0  0
    8.0627    1.2518   -0.2937 C   0  0  0  0  0  0  0  0  0  0  0  0
    6.9903   -0.6502   -1.4537 C   0  0  0  0  0  0  0  0  0  0  0  0
    5.2794   -0.1008    1.8618 C   0  0  0  0  0  0  0  0  0  0  0  0
    3.8135   -0.3083    1.5882 C   0  0  0  0  0  0  0  0  0  0  0  0
    9.4013   -0.1816   -1.8152 C   0  0  0  0  0  0  0  0  0  0  0  0
    3.2860   -1.5991    1.5526 C   0  0  0  0  0  0  0  0  0  0  0  0
    2.9827    0.7910    1.3705 C   0  0  0  0  0  0  0  0  0  0  0  0
    1.9279   -1.7907    1.2991 C   0  0  0  0  0  0  0  0  0  0  0  0
    1.6246    0.5993    1.1170 C   0  0  0  0  0  0  0  0  0  0  0  0
    1.0971   -0.6916    1.0813 C   0  0  0  0  0  0  0  0  0  0  0  0
   -0.3187   -0.8920    0.8161 C   0  0  0  0  0  0  0  0  0  0  0  0
   -1.9504   -2.5968   -0.1196 C   0  0  0  0  0  0  0  0  0  0  0  0
   -4.3438   -2.2835   -0.2209 C   0  0  0  0  0  0  0  0  0  0  0  0
   -3.0770   -1.8104    0.1213 C   0  0  0  0  0  0  0  0  0  0  0  0
   -4.4840   -3.5428   -0.8039 C   0  0  0  0  0  0  0  0  0  0  0  0
   -2.0906   -3.8563   -0.7028 C   0  0  0  0  0  0  0  0  0  0  0  0
   -3.3573   -4.3292   -1.0450 C   0  0  0  0  0  0  0  0  0  0  0  0
   -5.8286   -4.0746   -1.1805 C   0  0  0  0  0  0  0  0  0  0  0  0
   -5.6549   -0.0791    0.0713 C   0  0  0  0  0  0  0  0  0  0  0  0
   -4.7781    2.0086   -0.1286 C   0  0  0  0  0  0  0  0  0  0  0  0
   -3.6150    2.8223   -0.3894 C   0  0  0  0  0  0  0  0  0  0  0  0
   -6.0036    2.5823    0.1428 C   0  0  0  0  0  0  0  0  0  0  0  0
   -7.0381    1.6991    0.3751 C   0  0  0  0  0  0  0  0  0  0  0  0
   -2.5984    2.3729   -1.2249 C   0  0  0  0  0  0  0  0  0  0  0  0
   -3.4761    4.0757    0.1847 C   0  0  0  0  0  0  0  0  0  0  0  0
   -1.4897    3.1792   -1.4574 C   0  0  0  0  0  0  0  0  0  0  0  0
   -1.4458    4.4165   -0.8356 C   0  0  0  0  0  0  0  0  0  0  0  0
    7.9165    0.2103    1.5933 H   0  0  0  0  0  0  0  0  0  0  0  0
    7.1191    1.7906    1.5511 H   0  0  0  0  0  0  0  0  0  0  0  0
    5.3015   -1.4593   -0.4415 H   0  0  0  0  0  0  0  0  0  0  0  0
    6.8298   -1.7242    0.4101 H   0  0  0  0  0  0  0  0  0  0  0  0
    7.5223    2.0246   -0.8537 H   0  0  0  0  0  0  0  0  0  0  0  0
    9.0471    1.6572   -0.0370 H   0  0  0  0  0  0  0  0  0  0  0  0
    6.3653   -0.0269   -2.1047 H   0  0  0  0  0  0  0  0  0  0  0  0
    7.2295   -1.5661   -2.0046 H   0  0  0  0  0  0  0  0  0  0  0  0
    5.3471    0.7273    2.5816 H   0  0  0  0  0  0  0  0  0  0  0  0
    5.7100   -0.9675    2.3819 H   0  0  0  0  0  0  0  0  0  0  0  0
    9.3271   -1.0821   -2.4465 H   0  0  0  0  0  0  0  0  0  0  0  0
    3.9210   -2.4634    1.7288 H   0  0  0  0  0  0  0  0  0  0  0  0
    3.3822    1.8015    1.3944 H   0  0  0  0  0  0  0  0  0  0  0  0
    1.5572   -2.8112    1.3196 H   0  0  0  0  0  0  0  0  0  0  0  0
    0.9957    1.4689    0.9442 H   0  0  0  0  0  0  0  0  0  0  0  0
    0.0848   -2.7539   -0.0305 H   0  0  0  0  0  0  0  0  0  0  0  0
   -3.0063   -0.8663    0.6336 H   0  0  0  0  0  0  0  0  0  0  0  0
   -1.2211   -4.4794   -0.8957 H   0  0  0  0  0  0  0  0  0  0  0  0
   -3.4486   -5.3130   -1.4977 H   0  0  0  0  0  0  0  0  0  0  0  0
   -6.3503   -1.9769    0.1179 H   0  0  0  0  0  0  0  0  0  0  0  0
   -6.4351   -4.2494   -0.2858 H   0  0  0  0  0  0  0  0  0  0  0  0
   -5.7528   -5.0273   -1.7162 H   0  0  0  0  0  0  0  0  0  0  0  0
   -6.3496   -3.3763   -1.8440 H   0  0  0  0  0  0  0  0  0  0  0  0
   -6.1884    3.6487    0.1600 H   0  0  0  0  0  0  0  0  0  0  0  0
   -8.0392    2.0563    0.5917 H   0  0  0  0  0  0  0  0  0  0  0  0
   -2.6447    1.4036   -1.7149 H   0  0  0  0  0  0  0  0  0  0  0  0
   -4.2093    4.4949    0.8667 H   0  0  0  0  0  0  0  0  0  0  0  0
   -0.6855    2.8499   -2.1054 H   0  0  0  0  0  0  0  0  0  0  0  0
   -0.6027    5.0831   -0.9843 H   0  0  0  0  0  0  0  0  0  0  0  0
  1 16  2  0  0  0  0
  2 22  2  0  0  0  0
  3 10  1  0  0  0  0
  3 11  1  0  0  0  0
  3 14  1  0  0  0  0
  4 12  1  0  0  0  0
  4 13  1  0  0  0  0
  4 16  1  0  0  0  0
  5 22  1  0  0  0  0
  5 23  1  0  0  0  0
  5 54  1  0  0  0  0
  6 24  1  0  0  0  0
  6 30  1  0  0  0  0
  6 58  1  0  0  0  0
  7 30  1  0  0  0  0
  7 31  2  0  0  0  0
  8 30  2  0  0  0  0
  8 34  1  0  0  0  0
  9 36  1  0  0  0  0
  9 38  2  0  0  0  0
 10 12  1  0  0  0  0
 10 39  1  0  0  0  0
 10 40  1  0  0  0  0
 11 13  1  0  0  0  0
 11 41  1  0  0  0  0
 11 42  1  0  0  0  0
 12 43  1  0  0  0  0
 12 44  1  0  0  0  0
 13 45  1  0  0  0  0
 13 46  1  0  0  0  0
 14 15  1  0  0  0  0
 14 47  1  0  0  0  0
 14 48  1  0  0  0  0
 15 17  2  0  0  0  0
 15 18  1  0  0  0  0
 16 49  1  0  0  0  0
 17 19  1  0  0  0  0
 17 50  1  0  0  0  0
 18 20  2  0  0  0  0
 18 51  1  0  0  0  0
 19 21  2  0  0  0  0
 19 52  1  0  0  0  0
 20 21  1  0  0  0  0
 20 53  1  0  0  0  0
 21 22  1  0  0  0  0
 23 25  2  0  0  0  0
 23 27  1  0  0  0  0
 24 25  1  0  0  0  0
 24 26  2  0  0  0  0
 25 55  1  0  0  0  0
 26 28  1  0  0  0  0
 26 29  1  0  0  0  0
 27 28  2  0  0  0  0
 27 56  1  0  0  0  0
 28 57  1  0  0  0  0
 29 59  1  0  0  0  0
 29 60  1  0  0  0  0
 29 61  1  0  0  0  0
 31 32  1  0  0  0  0
 31 33  1  0  0  0  0
 32 35  1  0  0  0  0
 32 36  2  0  0  0  0
 33 34  2  0  0  0  0
 33 62  1  0  0  0  0
 34 63  1  0  0  0  0
 35 37  2  0  0  0  0
 35 64  1  0  0  0  0
 36 65  1  0  0  0  0
 37 38  1  0  0  0  0
 37 66  1  0  0  0  0
 38 67  1  0  0  0  0
M  END
> <PUBCHEM_COMPOUND_CID>
73348902

> <PUBCHEM_CONFORMER_RMSD>
1.2

> <PUBCHEM_CONFORMER_DIVERSEORDER>
1
58
43
59
66
56
53
62
46
48
39
10
9
6
63
57
47
40
16
19
69
61
30
13
42
68
45
33
29
54
37
21
8
32
17
35
60
67
44
12
20
34
18
49
31
65
3
50
27
36
23
11
51
52
4
64
15
24
26
41
7
38
2
28
14
55
22
5
25

> <PUBCHEM_MMFF94_PARTIAL_CHARGES>
53
1 -0.57
10 0.27
11 0.27
12 0.3
13 0.3
14 0.41
15 -0.14
16 0.57
17 -0.15
18 -0.15
19 -0.15
2 -0.57
20 -0.15
21 0.09
22 0.54
23 0.12
24 0.1
25 -0.15
26 -0.14
27 -0.15
28 -0.15
29 0.14
3 -0.81
30 0.72
31 0.31
33 -0.15
34 0.16
35 -0.15
36 0.16
37 -0.15
38 0.16
4 -0.66
49 0.06
5 -0.55
50 0.15
51 0.15
52 0.15
53 0.15
54 0.37
55 0.15
56 0.15
57 0.15
58 0.4
6 -0.6
62 0.15
63 0.15
64 0.15
65 0.15
66 0.15
67 0.15
7 -0.62
8 -0.62
9 -0.62

> <PUBCHEM_EFFECTIVE_ROTOR_COUNT>
10.2

> <PUBCHEM_PHARMACOPHORE_FEATURES>
13
1 1 acceptor
1 2 acceptor
1 3 cation
1 5 donor
1 6 donor
1 7 acceptor
1 9 acceptor
4 6 7 8 30 cation
6 15 17 18 19 20 21 rings
6 23 24 25 26 27 28 rings
6 3 4 10 11 12 13 rings
6 7 8 30 31 33 34 rings
6 9 32 35 36 37 38 rings

> <PUBCHEM_HEAVY_ATOM_COUNT>
38

> <PUBCHEM_ATOM_DEF_STEREO_COUNT>
0

> <PUBCHEM_ATOM_UDEF_STEREO_COUNT>
0

> <PUBCHEM_BOND_DEF_STEREO_COUNT>
0

> <PUBCHEM_BOND_UDEF_STEREO_COUNT>
0

> <PUBCHEM_ISOTOPIC_ATOM_COUNT>
0

> <PUBCHEM_COMPONENT_COUNT>
1

> <PUBCHEM_CACTVS_TAUTO_COUNT>
6

> <PUBCHEM_CONFORMER_ID>
045F372600000001

> <PUBCHEM_MMFF94_ENERGY>
121.9522

> <PUBCHEM_FEATURE_SELFOVERLAP>
65.974

> <PUBCHEM_SHAPE_FINGERPRINT>
10165383 225 18130786742907502707
10290309 65 18122895440052958313
10454371 7 18409451375733493336
11410812 94 18409453592769541932
13383668 90 18131353054539123902
13690498 29 18342175609362276174
13757389 114 18413385437127739535
13974486 27 18198060489679655344
14117953 113 18338784677401105469
14202776 33 18040991817513343381
14294032 229 18262516992425403704
14856354 85 18337107981507719319
15064981 194 17097236028715005058
15198563 99 18338788009530790869
15219648 13 18413390918086200006
15328829 1 17530972367043875638
15361156 5 18333452053446495474
15400415 2 17691390928743297177
15419008 91 17703210924112863248
15444296 121 18261677090243605771
15685185 35 17096102397708644564
15876981 60 18261110833154232871
16728433 281 18269564849496792896
18608769 82 18411409614400466352
20771845 165 18271250400542377695
21033650 10 18334863814140621322
21133410 127 17829612756232809053
21796203 349 18044122166627610593
21867018 265 18342464768383217316
21927370 108 18265335204791096363
23191077 185 18042963173901968456
23522609 53 18113339700254560234
23576562 1 18337391663865296804
25019877 29 17775559859026719775
3610482 184 18113901537832693682
4107672 100 18413672430705200910
4197921 191 18115019702054809938
44249763 50 18270945921946942664
48014 12 18041561334556916444
5265222 85 18412544288725261531
5911458 16 17822019700940095276
6036956 94 17899963942789557429
6608658 132 18260258651017122409
6697151 62 16271918299796886778
6700243 42 17913234197289905167
6703917 75 18270687454551276273

> <PUBCHEM_SHAPE_MULTIPOLES>
735.42
25.21
5.83
1.56
61.87
1.32
-0.06
2.4
-9.75
-14.61
-2.35
3.18
-0.16
-1.41

> <PUBCHEM_SHAPE_SELFOVERLAP>
1599.625

> <PUBCHEM_SHAPE_VOLUME>
396.7

> <PUBCHEM_COORDINATE_TYPE>
2
5
10

$$$$
71749457
  -OEChem-01162405103D

 70 74  0     0  0  0  0  0  0999 V2000
    5.3981   -1.5993   -0.1314 O   0  5  0  0  0  0  0  0  0  0  0  0
    8.6749    1.3145    0.8438 O   0  5  0  0  0  0  0  0  0  0  0  0
   -1.2044   -0.0166   -1.1450 O   0  0  0  0  0  0  0  0  0  0  0  0
    5.9478   -0.4365   -0.6083 N   0  3  0  0  0  0  0  0  0  0  0  0
    8.1252    0.1516    1.3207 N   0  3  0  0  0  0  0  0  0  0  0  0
   -0.7102    2.1009   -0.2628 N   0  0  0  0  0  0  0  0  0  0  0  0
   -5.5310    1.5445   -0.0741 N   0  0  0  0  0  0  0  0  0  0  0  0
   -4.6632   -0.6188    0.1599 N   0  0  0  0  0  0  0  0  0  0  0  0
   -6.9869   -0.2658   -0.3724 N   0  0  0  0  0  0  0  0  0  0  0  0
   -2.5833   -4.8678    0.0681 N   0  0  0  0  0  0  0  0  0  0  0  0
    5.8336    0.6632    0.4264 C   0  0  0  0  0  0  0  0  0  0  0  0
    7.4076   -0.6458   -0.9513 C   0  0  0  0  0  0  0  0  0  0  0  0
    6.6654    0.3612    1.6637 C   0  0  0  0  0  0  0  0  0  0  0  0
    8.2393   -0.9479    0.2860 C   0  0  0  0  0  0  0  0  0  0  0  0
    5.1943   -0.0385   -1.8473 C   0  0  0  0  0  0  0  0  0  0  0  0
    8.8786   -0.2464    2.5597 C   0  0  0  0  0  0  0  0  0  0  0  0
    3.7393    0.1968   -1.5831 C   0  0  0  0  0  0  0  0  0  0  0  0
    3.2344    1.4970   -1.5664 C   0  0  0  0  0  0  0  0  0  0  0  0
    2.8888   -0.8848   -1.3540 C   0  0  0  0  0  0  0  0  0  0  0  0
    1.8790    1.7155   -1.3204 C   0  0  0  0  0  0  0  0  0  0  0  0
    1.5335   -0.6662   -1.1080 C   0  0  0  0  0  0  0  0  0  0  0  0
    1.0285    0.6340   -1.0911 C   0  0  0  0  0  0  0  0  0  0  0  0
   -0.3846    0.8625   -0.8338 C   0  0  0  0  0  0  0  0  0  0  0  0
   -1.9895    2.6077    0.0736 C   0  0  0  0  0  0  0  0  0  0  0  0
   -3.1288    1.8379   -0.1611 C   0  0  0  0  0  0  0  0  0  0  0  0
   -2.1095    3.8769    0.6397 C   0  0  0  0  0  0  0  0  0  0  0  0
   -4.3883    2.3374    0.1703 C   0  0  0  0  0  0  0  0  0  0  0  0
   -4.5085    3.6066    0.7362 C   0  0  0  0  0  0  0  0  0  0  0  0
   -3.3690    4.3763    0.9711 C   0  0  0  0  0  0  0  0  0  0  0  0
   -5.8447    4.1666    1.1009 C   0  0  0  0  0  0  0  0  0  0  0  0
   -5.7367    0.1526   -0.0977 C   0  0  0  0  0  0  0  0  0  0  0  0
   -4.8972   -1.9472    0.1327 C   0  0  0  0  0  0  0  0  0  0  0  0
   -3.7494   -2.7775    0.4085 C   0  0  0  0  0  0  0  0  0  0  0  0
   -6.1315   -2.5031   -0.1355 C   0  0  0  0  0  0  0  0  0  0  0  0
   -7.1496   -1.6050   -0.3832 C   0  0  0  0  0  0  0  0  0  0  0  0
   -2.7279   -2.3349    1.2417 C   0  0  0  0  0  0  0  0  0  0  0  0
   -3.6303   -4.0407   -0.1486 C   0  0  0  0  0  0  0  0  0  0  0  0
   -1.6342   -3.1573    1.4888 C   0  0  0  0  0  0  0  0  0  0  0  0
   -1.6099   -4.4034    0.8834 C   0  0  0  0  0  0  0  0  0  0  0  0
    4.7825    0.7410    0.7186 H   0  0  0  0  0  0  0  0  0  0  0  0
    6.1580    1.5894   -0.0607 H   0  0  0  0  0  0  0  0  0  0  0  0
    7.7459    0.2708   -1.4472 H   0  0  0  0  0  0  0  0  0  0  0  0
    7.4441   -1.4798   -1.6605 H   0  0  0  0  0  0  0  0  0  0  0  0
    6.6299    1.1950    2.3732 H   0  0  0  0  0  0  0  0  0  0  0  0
    6.3291   -0.5556    2.1609 H   0  0  0  0  0  0  0  0  0  0  0  0
    9.3023   -1.0281    0.0338 H   0  0  0  0  0  0  0  0  0  0  0  0
    7.9100   -1.8707    0.7766 H   0  0  0  0  0  0  0  0  0  0  0  0
    5.3262   -0.8519   -2.5719 H   0  0  0  0  0  0  0  0  0  0  0  0
    5.6848    0.8566   -2.2485 H   0  0  0  0  0  0  0  0  0  0  0  0
    8.4451   -1.1728    2.9446 H   0  0  0  0  0  0  0  0  0  0  0  0
    8.7791    0.5686    3.2818 H   0  0  0  0  0  0  0  0  0  0  0  0
    9.9260   -0.3852    2.2779 H   0  0  0  0  0  0  0  0  0  0  0  0
    3.8847    2.3480   -1.7506 H   0  0  0  0  0  0  0  0  0  0  0  0
    3.2525   -1.9077   -1.3902 H   0  0  0  0  0  0  0  0  0  0  0  0
    1.5263    2.7419   -1.3554 H   0  0  0  0  0  0  0  0  0  0  0  0
    0.8875   -1.5228   -0.9326 H   0  0  0  0  0  0  0  0  0  0  0  0
    0.0485    2.7281   -0.0102 H   0  0  0  0  0  0  0  0  0  0  0  0
   -3.0729    0.8860   -0.6607 H   0  0  0  0  0  0  0  0  0  0  0  0
   -1.2300    4.4873    0.8276 H   0  0  0  0  0  0  0  0  0  0  0  0
   -3.4445    5.3674    1.4106 H   0  0  0  0  0  0  0  0  0  0  0  0
   -6.3986    2.0614   -0.1716 H   0  0  0  0  0  0  0  0  0  0  0  0
   -6.4450    4.3401    0.2018 H   0  0  0  0  0  0  0  0  0  0  0  0
   -6.3801    3.4863    1.7717 H   0  0  0  0  0  0  0  0  0  0  0  0
   -5.7541    5.1249    1.6243 H   0  0  0  0  0  0  0  0  0  0  0  0
   -6.3349   -3.5662   -0.1393 H   0  0  0  0  0  0  0  0  0  0  0  0
   -8.1561   -1.9476   -0.5987 H   0  0  0  0  0  0  0  0  0  0  0  0
   -2.7589   -1.3585    1.7187 H   0  0  0  0  0  0  0  0  0  0  0  0
   -4.3684   -4.4559   -0.8278 H   0  0  0  0  0  0  0  0  0  0  0  0
   -0.8266   -2.8335    2.1353 H   0  0  0  0  0  0  0  0  0  0  0  0
   -0.7791   -5.0825    1.0439 H   0  0  0  0  0  0  0  0  0  0  0  0
  1  4  1  0  0  0  0
  2  5  1  0  0  0  0
  3 23  2  0  0  0  0
  4 11  1  0  0  0  0
  4 12  1  0  0  0  0
  4 15  1  0  0  0  0
  5 13  1  0  0  0  0
  5 14  1  0  0  0  0
  5 16  1  0  0  0  0
  6 23  1  0  0  0  0
  6 24  1  0  0  0  0
  6 57  1  0  0  0  0
  7 27  1  0  0  0  0
  7 31  1  0  0  0  0
  7 61  1  0  0  0  0
  8 31  1  0  0  0  0
  8 32  2  0  0  0  0
  9 31  2  0  0  0  0
  9 35  1  0  0  0  0
 10 37  1  0  0  0  0
 10 39  2  0  0  0  0
 11 13  1  0  0  0  0
 11 40  1  0  0  0  0
 11 41  1  0  0  0  0
 12 14  1  0  0  0  0
 12 42  1  0  0  0  0
 12 43  1  0  0  0  0
 13 44  1  0  0  0  0
 13 45  1  0  0  0  0
 14 46  1  0  0  0  0
 14 47  1  0  0  0  0
 15 17  1  0  0  0  0
 15 48  1  0  0  0  0
 15 49  1  0  0  0  0
 16 50  1  0  0  0  0
 16 51  1  0  0  0  0
 16 52  1  0  0  0  0
 17 18  2  0  0  0  0
 17 19  1  0  0  0  0
 18 20  1  0  0  0  0
 18 53  1  0  0  0  0
 19 21  2  0  0  0  0
 19 54  1  0  0  0  0
 20 22  2  0  0  0  0
 20 55  1  0  0  0  0
 21 22  1  0  0  0  0
 21 56  1  0  0  0  0
 22 23  1  0  0  0  0
 24 25  2  0  0  0  0
 24 26  1  0  0  0  0
 25 27  1  0  0  0  0
 25 58  1  0  0  0  0
 26 29  2  0  0  0  0
 26 59  1  0  0  0  0
 27 28  2  0  0  0  0
 28 29  1  0  0  0  0
 28 30  1  0  0  0  0
 29 60  1  0  0  0  0
 30 62  1  0  0  0  0
 30 63  1  0  0  0  0
 30 64  1  0  0  0  0
 32 33  1  0  0  0  0
 32 34  1  0  0  0  0
 33 36  1  0  0  0  0
 33 37  2  0  0  0  0
 34 35  2  0  0  0  0
 34 65  1  0  0  0  0
 35 66  1  0  0  0  0
 36 38  2  0  0  0  0
 36 67  1  0  0  0  0
 37 68  1  0  0  0  0
 38 39  1  0  0  0  0
 38 69  1  0  0  0  0
 39 70  1  0  0  0  0
M  CHG  4   1  -1   2  -1   4   1   5   1
M  END
> <PUBCHEM_COMPOUND_CID>
71749457

> <PUBCHEM_CONFORMER_RMSD>
1.2

> <PUBCHEM_CONFORMER_DIVERSEORDER>
1
141
139
154
12
118
140
108
37
93
25
146
27
147
51
168
129
7
157
109
120
74
158
95
58
48
170
42
90
163
81
131
73
105
152
145
66
159
55
156
144
150
167
64
80
125
165
79
112
69
128
29
32
164
86
98
121
26
67
143
142
110
84
72
138
166
47
52
103
33
89
13
122
63
123
116
94
115
82
78
126
54
136
75
137
39
119
91
50
114
49
46
21
155
92
40
44
148
99
57
161
134
135
102
60
17
130
9
41
85
61
153
38
28
160
149
106
53
59
133
100
15
68
77
88
6
14
19
169
22
2
96
71
23
8
20
43
87
117
97
34
127
24
113
132
3
65
30
45
83
10
31
104
101
16
36
76
124
18
162
56
111
70
107
151
11
62
4
35
5

> <PUBCHEM_MMFF94_PARTIAL_CHARGES>
53
1 -0.75
10 -0.62
11 0.26
12 0.26
13 0.26
14 0.26
15 0.4
16 0.26
17 -0.14
18 -0.15
19 -0.15
2 -0.75
20 -0.15
21 -0.15
22 0.09
23 0.54
24 0.12
25 -0.15
26 -0.15
27 0.1
28 -0.14
29 -0.15
3 -0.57
30 0.14
31 0.72
32 0.31
34 -0.15
35 0.16
36 -0.15
37 0.16
38 -0.15
39 0.16
4 -0.02
5 -0.02
53 0.15
54 0.15
55 0.15
56 0.15
57 0.37
58 0.15
59 0.15
6 -0.55
60 0.15
61 0.4
65 0.15
66 0.15
67 0.15
68 0.15
69 0.15
7 -0.6
70 0.15
8 -0.62
9 -0.62

> <PUBCHEM_EFFECTIVE_ROTOR_COUNT>
9.2

> <PUBCHEM_PHARMACOPHORE_FEATURES>
13
1 1 anion
1 10 acceptor
1 2 anion
1 3 acceptor
1 6 donor
1 7 donor
1 8 acceptor
4 7 8 9 31 cation
6 10 33 36 37 38 39 rings
6 17 18 19 20 21 22 rings
6 24 25 26 27 28 29 rings
6 4 5 11 12 13 14 rings
6 8 9 31 32 34 35 rings

> <PUBCHEM_HEAVY_ATOM_COUNT>
39

> <PUBCHEM_ATOM_DEF_STEREO_COUNT>
0

> <PUBCHEM_ATOM_UDEF_STEREO_COUNT>
0

> <PUBCHEM_BOND_DEF_STEREO_COUNT>
0

> <PUBCHEM_BOND_UDEF_STEREO_COUNT>
0

> <PUBCHEM_ISOTOPIC_ATOM_COUNT>
0

> <PUBCHEM_COMPONENT_COUNT>
1

> <PUBCHEM_CACTVS_TAUTO_COUNT>
6

> <PUBCHEM_CONFORMER_ID>
0446CF5100000001

> <PUBCHEM_MMFF94_ENERGY>
139.6684

> <PUBCHEM_FEATURE_SELFOVERLAP>
65.972

> <PUBCHEM_SHAPE_FINGERPRINT>
10 15 17989484126543964164
10254770 206 18336542811008414523
10290309 65 17759532066937414757
11136131 41 17615409598707466692
11973864 47 18127966620332254072
12202916 173 18273216430944696447
12218070 45 18334858311812462684
12788726 201 18409175428585063835
12857493 111 18271525394018111848
13540713 5 17896341258207812412
14461889 52 18202283589808799012
14659021 117 18413388748621234537
14725015 67 18340773758444702703
14747282 305 17460024082035154506
15021287 119 16660652846781745140
15183329 4 17603587456311266238
15320294 125 18041000656915254255
15328829 1 17458338650350945290
15351339 4 18261388932798715091
15400415 2 17906747899267859805
15781502 237 18335707122712215082
16112460 7 18113615638713056146
18738133 686 18042106684557363426
19611394 137 18273495693575399320
21130935 74 18270684139295395038
21136928 87 15745003044237439274
3383291 50 18408891758727603811
397830 11 17989205941343617956
4073 2 18270967847496882828
4403749 210 17988355984253055005
4616759 239 18131067112800875025
49967989 163 18191896563211524830
5047190 69 18342736325357418088
5080951 261 18113611287694387741
5085150 59 18411138043444565511
6376802 137 17917722309660734377

> <PUBCHEM_SHAPE_MULTIPOLES>
750.13
24.47
5.75
1.61
47.76
0.9
-0.28
1.06
-8.15
-14.52
-2.3
3.46
-0.09
-0.99

> <PUBCHEM_SHAPE_SELFOVERLAP>
1630.056

> <PUBCHEM_SHAPE_VOLUME>
404.8

> <PUBCHEM_COORDINATE_TYPE>
2
5
10

$$$$
25235773
  -OEChem-01162405103D

 68 72  0     0  0  0  0  0  0999 V2000
   -0.8156    0.0015   -1.1146 O   0  0  0  0  0  0  0  0  0  0  0  0
    6.3173   -0.2344   -0.4943 N   0  0  0  0  0  0  0  0  0  0  0  0
    8.5665   -0.0206    1.3096 N   0  0  0  0  0  0  0  0  0  0  0  0
   -0.3687    2.1152   -0.1990 N   0  0  0  0  0  0  0  0  0  0  0  0
   -5.1829    1.4801   -0.0867 N   0  0  0  0  0  0  0  0  0  0  0  0
   -4.2832   -0.6715    0.1305 N   0  0  0  0  0  0  0  0  0  0  0  0
   -6.6055   -0.3494   -0.4269 N   0  0  0  0  0  0  0  0  0  0  0  0
   -2.1311   -4.8833    0.0028 N   0  0  0  0  0  0  0  0  0  0  0  0
    7.5987   -0.8853   -0.7936 C   0  0  0  0  0  0  0  0  0  0  0  0
    6.5319    0.9699    0.3171 C   0  0  0  0  0  0  0  0  0  0  0  0
    8.3531   -1.2242    0.4967 C   0  0  0  0  0  0  0  0  0  0  0  0
    7.2851    0.6306    1.6079 C   0  0  0  0  0  0  0  0  0  0  0  0
    5.5999    0.0900   -1.7255 C   0  0  0  0  0  0  0  0  0  0  0  0
    9.2825   -0.3464    2.5415 C   0  0  0  0  0  0  0  0  0  0  0  0
    4.1294    0.2993   -1.4793 C   0  0  0  0  0  0  0  0  0  0  0  0
    3.2930   -0.7983   -1.2759 C   0  0  0  0  0  0  0  0  0  0  0  0
    3.6036    1.5910   -1.4530 C   0  0  0  0  0  0  0  0  0  0  0  0
    1.9308   -0.6043   -1.0465 C   0  0  0  0  0  0  0  0  0  0  0  0
    2.2415    1.7851   -1.2237 C   0  0  0  0  0  0  0  0  0  0  0  0
    1.4052    0.6875   -1.0204 C   0  0  0  0  0  0  0  0  0  0  0  0
   -0.0150    0.8899   -0.7808 C   0  0  0  0  0  0  0  0  0  0  0  0
   -1.6608    2.5969    0.1255 C   0  0  0  0  0  0  0  0  0  0  0  0
   -4.0562    2.2878    0.1832 C   0  0  0  0  0  0  0  0  0  0  0  0
   -2.7842    1.8125   -0.1358 C   0  0  0  0  0  0  0  0  0  0  0  0
   -4.2047    3.5476    0.7634 C   0  0  0  0  0  0  0  0  0  0  0  0
   -1.8093    3.8566    0.7056 C   0  0  0  0  0  0  0  0  0  0  0  0
   -3.0813    4.3320    1.0246 C   0  0  0  0  0  0  0  0  0  0  0  0
   -5.5551    4.0812    1.1148 C   0  0  0  0  0  0  0  0  0  0  0  0
   -5.3662    0.0857   -0.1296 C   0  0  0  0  0  0  0  0  0  0  0  0
   -4.4944   -2.0031    0.0806 C   0  0  0  0  0  0  0  0  0  0  0  0
   -3.3362   -2.8180    0.3591 C   0  0  0  0  0  0  0  0  0  0  0  0
   -5.7157   -2.5753   -0.2118 C   0  0  0  0  0  0  0  0  0  0  0  0
   -6.7454   -1.6909   -0.4597 C   0  0  0  0  0  0  0  0  0  0  0  0
   -2.3330   -2.3710    1.2117 C   0  0  0  0  0  0  0  0  0  0  0  0
   -3.1891   -4.0704   -0.2151 C   0  0  0  0  0  0  0  0  0  0  0  0
   -1.2288   -3.1788    1.4606 C   0  0  0  0  0  0  0  0  0  0  0  0
   -1.1760   -4.4151    0.8372 C   0  0  0  0  0  0  0  0  0  0  0  0
    8.2231   -0.2443   -1.4309 H   1  0  0  0  0  0  0  0  0  0  0  0
    7.4234   -1.8195   -1.3410 H   1  0  0  0  0  0  0  0  0  0  0  0
    7.0920    1.7295   -0.2453 H   1  0  0  0  0  0  0  0  0  0  0  0
    5.5754    1.4180    0.6079 H   1  0  0  0  0  0  0  0  0  0  0  0
    9.3204   -1.6641    0.2250 H   1  0  0  0  0  0  0  0  0  0  0  0
    7.7955   -1.9842    1.0610 H   1  0  0  0  0  0  0  0  0  0  0  0
    6.6585   -0.0100    2.2434 H   1  0  0  0  0  0  0  0  0  0  0  0
    7.4629    1.5624    2.1586 H   1  0  0  0  0  0  0  0  0  0  0  0
    6.0406    0.9555   -2.2389 H   0  0  0  0  0  0  0  0  0  0  0  0
    5.6807   -0.7393   -2.4426 H   0  0  0  0  0  0  0  0  0  0  0  0
    9.4793    0.5611    3.1230 H   0  0  0  0  0  0  0  0  0  0  0  0
   10.2576   -0.7908    2.3131 H   0  0  0  0  0  0  0  0  0  0  0  0
    8.7240   -1.0464    3.1734 H   0  0  0  0  0  0  0  0  0  0  0  0
    3.6910   -1.8096   -1.2924 H   0  0  0  0  0  0  0  0  0  0  0  0
    4.2432    2.4541   -1.6176 H   0  0  0  0  0  0  0  0  0  0  0  0
    1.2974   -1.4729   -0.8846 H   0  0  0  0  0  0  0  0  0  0  0  0
    1.8729    2.8062   -1.2508 H   0  0  0  0  0  0  0  0  0  0  0  0
    0.3760    2.7514    0.0723 H   0  0  0  0  0  0  0  0  0  0  0  0
   -2.7057    0.8682   -0.6467 H   0  0  0  0  0  0  0  0  0  0  0  0
   -0.9424    4.4784    0.9140 H   0  0  0  0  0  0  0  0  0  0  0  0
   -3.1790    5.3161    1.4753 H   0  0  0  0  0  0  0  0  0  0  0  0
   -6.0572    1.9845   -0.1900 H   0  0  0  0  0  0  0  0  0  0  0  0
   -6.1449    4.2563    0.2090 H   0  0  0  0  0  0  0  0  0  0  0  0
   -6.0892    3.3840    1.7691 H   0  0  0  0  0  0  0  0  0  0  0  0
   -5.4879    5.0342    1.6512 H   0  0  0  0  0  0  0  0  0  0  0  0
   -5.9011   -3.6416   -0.2339 H   0  0  0  0  0  0  0  0  0  0  0  0
   -7.7432   -2.0469   -0.6934 H   0  0  0  0  0  0  0  0  0  0  0  0
   -2.3865   -1.4026    1.7027 H   0  0  0  0  0  0  0  0  0  0  0  0
   -3.9115   -4.4876   -0.9098 H   0  0  0  0  0  0  0  0  0  0  0  0
   -0.4349   -2.8513    2.1221 H   0  0  0  0  0  0  0  0  0  0  0  0
   -0.3359   -5.0827    0.9983 H   0  0  0  0  0  0  0  0  0  0  0  0
  1 21  2  0  0  0  0
  2  9  1  0  0  0  0
  2 10  1  0  0  0  0
  2 13  1  0  0  0  0
  3 11  1  0  0  0  0
  3 12  1  0  0  0  0
  3 14  1  0  0  0  0
  4 21  1  0  0  0  0
  4 22  1  0  0  0  0
  4 55  1  0  0  0  0
  5 23  1  0  0  0  0
  5 29  1  0  0  0  0
  5 59  1  0  0  0  0
  6 29  1  0  0  0  0
  6 30  2  0  0  0  0
  7 29  2  0  0  0  0
  7 33  1  0  0  0  0
  8 35  1  0  0  0  0
  8 37  2  0  0  0  0
  9 11  1  0  0  0  0
  9 38  1  0  0  0  0
  9 39  1  0  0  0  0
 10 12  1  0  0  0  0
 10 40  1  0  0  0  0
 10 41  1  0  0  0  0
 11 42  1  0  0  0  0
 11 43  1  0  0  0  0
 12 44  1  0  0  0  0
 12 45  1  0  0  0  0
 13 15  1  0  0  0  0
 13 46  1  0  0  0  0
 13 47  1  0  0  0  0
 14 48  1  0  0  0  0
 14 49  1  0  0  0  0
 14 50  1  0  0  0  0
 15 16  2  0  0  0  0
 15 17  1  0  0  0  0
 16 18  1  0  0  0  0
 16 51  1  0  0  0  0
 17 19  2  0  0  0  0
 17 52  1  0  0  0  0
 18 20  2  0  0  0  0
 18 53  1  0  0  0  0
 19 20  1  0  0  0  0
 19 54  1  0  0  0  0
 20 21  1  0  0  0  0
 22 24  2  0  0  0  0
 22 26  1  0  0  0  0
 23 24  1  0  0  0  0
 23 25  2  0  0  0  0
 24 56  1  0  0  0  0
 25 27  1  0  0  0  0
 25 28  1  0  0  0  0
 26 27  2  0  0  0  0
 26 57  1  0  0  0  0
 27 58  1  0  0  0  0
 28 60  1  0  0  0  0
 28 61  1  0  0  0  0
 28 62  1  0  0  0  0
 30 31  1  0  0  0  0
 30 32  1  0  0  0  0
 31 34  1  0  0  0  0
 31 35  2  0  0  0  0
 32 33  2  0  0  0  0
 32 63  1  0  0  0  0
 33 64  1  0  0  0  0
 34 36  2  0  0  0  0
 34 65  1  0  0  0  0
 35 66  1  0  0  0  0
 36 37  1  0  0  0  0
 36 67  1  0  0  0  0
 37 68  1  0  0  0  0
M  ISO  8  38   2  39   2  40   2  41   2  42   2  43   2  44   2  45   2
M  END
> <PUBCHEM_COMPOUND_CID>
25235773

> <PUBCHEM_CONFORMER_RMSD>
1

> <PUBCHEM_CONFORMER_DIVERSEORDER>
1
130
146
90
181
86
117
75
175
142
157
180
153
8
45
78
99
62
91
171
63
140
112
80
168
77
176
148
178
161
28
160
49
174
145
51
93
32
173
152
167
125
139
44
82
182
66
68
120
71
73
149
170
74
179
60
155
72
177
156
116
165
81
132
59
84
158
169
87
105
104
162
36
164
83
98
136
46
106
54
48
143
35
25
118
151
97
124
111
141
128
27
113
76
166
22
114
11
150
94
107
144
13
58
131
108
41
79
42
126
121
95
137
69
39
154
101
133
17
92
40
20
135
50
123
163
127
109
47
65
9
30
102
18
52
129
12
61
122
147
103
23
37
4
16
38
89
26
29
19
115
53
110
134
15
24
43
64
14
57
172
33
138
21
10
119
88
96
3
56
70
2
100
7
67
34
55
159
85
31
6
5

> <PUBCHEM_MMFF94_PARTIAL_CHARGES>
51
1 -0.57
10 0.27
11 0.27
12 0.27
13 0.41
14 0.27
15 -0.14
16 -0.15
17 -0.15
18 -0.15
19 -0.15
2 -0.81
20 0.09
21 0.54
22 0.12
23 0.1
24 -0.15
25 -0.14
26 -0.15
27 -0.15
28 0.14
29 0.72
3 -0.81
30 0.31
32 -0.15
33 0.16
34 -0.15
35 0.16
36 -0.15
37 0.16
4 -0.55
5 -0.6
51 0.15
52 0.15
53 0.15
54 0.15
55 0.37
56 0.15
57 0.15
58 0.15
59 0.4
6 -0.62
63 0.15
64 0.15
65 0.15
66 0.15
67 0.15
68 0.15
7 -0.62
8 -0.62
9 0.27

> <PUBCHEM_EFFECTIVE_ROTOR_COUNT>
9.2

> <PUBCHEM_PHARMACOPHORE_FEATURES>
13
1 1 acceptor
1 2 cation
1 3 cation
1 4 donor
1 5 donor
1 6 acceptor
1 8 acceptor
4 5 6 7 29 cation
6 15 16 17 18 19 20 rings
6 2 3 9 10 11 12 rings
6 22 23 24 25 26 27 rings
6 6 7 29 30 32 33 rings
6 8 31 34 35 36 37 rings

> <PUBCHEM_HEAVY_ATOM_COUNT>
37

> <PUBCHEM_ATOM_DEF_STEREO_COUNT>
0

> <PUBCHEM_ATOM_UDEF_STEREO_COUNT>
0

> <PUBCHEM_BOND_DEF_STEREO_COUNT>
0

> <PUBCHEM_BOND_UDEF_STEREO_COUNT>
0

> <PUBCHEM_ISOTOPIC_ATOM_COUNT>
8

> <PUBCHEM_COMPONENT_COUNT>
1

> <PUBCHEM_CACTVS_TAUTO_COUNT>
6

> <PUBCHEM_CONFORMER_ID>
0181113D00000001

> <PUBCHEM_MMFF94_ENERGY>
124.4736

> <PUBCHEM_FEATURE_SELFOVERLAP>
65.975

> <PUBCHEM_SHAPE_FINGERPRINT>
10254770 206 18336823186199216810
10290309 65 17831589669391223437
11136131 41 17615689974373003036
12202916 173 18201439216545492903
12498461 61 18187919540403888650
12788726 201 18409173229408840539
14461889 52 18131069321268561484
14659021 117 18413389852343563545
14725015 67 18341055233326298919
14747282 305 17460585932550716626
15021287 119 16732991915981058508
15183329 4 17603304882086671854
15274700 242 18261397728632923905
15320294 125 18113620101231367495
15328829 1 17530956999761673408
15351339 4 18334008377183458523
15400415 2 17907310849084189469
15927050 60 18124891054090239285
16112460 7 18113897118227359698
18738133 686 18042669634632123522
19611394 137 18201717379886140112
20775438 99 17120550223657994823
23559900 14 18124034800503753861
3383291 50 18409453608947825259
397830 11 17989204850664517804
4073 2 18341056238148173492
42767 46 18040427807278078090
4616759 239 17846217700735253545
5080951 261 18261660524311470244
5085150 59 18411419522769023438
6376802 137 17918003788716192977

> <PUBCHEM_SHAPE_MULTIPOLES>
720.71
23.29
5.93
1.57
52.43
1.35
-0.35
2.3
-7.73
-13.78
-2.32
3.45
-0.1
-1.62

> <PUBCHEM_SHAPE_SELFOVERLAP>
1565.844

> <PUBCHEM_SHAPE_VOLUME>
390.8

> <PUBCHEM_COORDINATE_TYPE>
2
5
10

$$$$
18525814
  -OEChem-01162405103D

 33 34  0     0  0  0  0  0  0999 V2000
    0.9557   -0.1747    0.4151 N   0  0  0  0  0  0  0  0  0  0  0  0
    3.7475    0.3327   -0.1389 N   0  0  0  0  0  0  0  0  0  0  0  0
   -1.6936   -3.1381   -0.3335 N   0  0  0  0  0  0  0  0  0  0  0  0
    1.4864    1.1932    0.3658 C   0  0  0  0  0  0  0  0  0  0  0  0
    2.0002   -1.1142    0.8407 C   0  0  0  0  0  0  0  0  0  0  0  0
    2.7030    1.2734   -0.5626 C   0  0  0  0  0  0  0  0  0  0  0  0
    3.2163   -1.0350   -0.0887 C   0  0  0  0  0  0  0  0  0  0  0  0
   -0.2033   -0.2502    1.3022 C   0  0  0  0  0  0  0  0  0  0  0  0
    4.9054    0.4076   -1.0277 C   0  0  0  0  0  0  0  0  0  0  0  0
   -1.4113    0.2506    0.5781 C   0  0  0  0  0  0  0  0  0  0  0  0
   -2.2246   -0.6070   -0.1627 C   0  0  0  0  0  0  0  0  0  0  0  0
   -1.7178    1.6093    0.6548 C   0  0  0  0  0  0  0  0  0  0  0  0
   -3.3444   -0.1060   -0.8266 C   0  0  0  0  0  0  0  0  0  0  0  0
   -2.8375    2.1103   -0.0091 C   0  0  0  0  0  0  0  0  0  0  0  0
   -3.6507    1.2527   -0.7498 C   0  0  0  0  0  0  0  0  0  0  0  0
   -1.9314   -2.0047   -0.2570 C   0  0  0  0  0  0  0  0  0  0  0  0
    1.7649    1.5473    1.3677 H   0  0  0  0  0  0  0  0  0  0  0  0
    0.7536    1.8940   -0.0417 H   0  0  0  0  0  0  0  0  0  0  0  0
    1.6139   -2.1404    0.8088 H   0  0  0  0  0  0  0  0  0  0  0  0
    2.3096   -0.9122    1.8752 H   0  0  0  0  0  0  0  0  0  0  0  0
    2.3920    1.0728   -1.5971 H   0  0  0  0  0  0  0  0  0  0  0  0
    3.0938    2.2978   -0.5323 H   0  0  0  0  0  0  0  0  0  0  0  0
    3.9859   -1.7176    0.2918 H   0  0  0  0  0  0  0  0  0  0  0  0
    2.9370   -1.3838   -1.0922 H   0  0  0  0  0  0  0  0  0  0  0  0
   -0.0431    0.3133    2.2324 H   0  0  0  0  0  0  0  0  0  0  0  0
   -0.3808   -1.2788    1.6411 H   0  0  0  0  0  0  0  0  0  0  0  0
    5.6997   -0.2627   -0.6812 H   0  0  0  0  0  0  0  0  0  0  0  0
    5.3256    1.4194   -1.0268 H   0  0  0  0  0  0  0  0  0  0  0  0
    4.6540    0.1396   -2.0603 H   0  0  0  0  0  0  0  0  0  0  0  0
   -1.1117    2.2912    1.2455 H   0  0  0  0  0  0  0  0  0  0  0  0
   -3.9892   -0.7607   -1.4082 H   0  0  0  0  0  0  0  0  0  0  0  0
   -3.0794    3.1671    0.0551 H   0  0  0  0  0  0  0  0  0  0  0  0
   -4.5233    1.6428   -1.2656 H   0  0  0  0  0  0  0  0  0  0  0  0
  1  4  1  0  0  0  0
  1  5  1  0  0  0  0
  1  8  1  0  0  0  0
  2  6  1  0  0  0  0
  2  7  1  0  0  0  0
  2  9  1  0  0  0  0
  3 16  3  0  0  0  0
  4  6  1  0  0  0  0
  4 17  1  0  0  0  0
  4 18  1  0  0  0  0
  5  7  1  0  0  0  0
  5 19  1  0  0  0  0
  5 20  1  0  0  0  0
  6 21  1  0  0  0  0
  6 22  1  0  0  0  0
  7 23  1  0  0  0  0
  7 24  1  0  0  0  0
  8 10  1  0  0  0  0
  8 25  1  0  0  0  0
  8 26  1  0  0  0  0
  9 27  1  0  0  0  0
  9 28  1  0  0  0  0
  9 29  1  0  0  0  0
 10 11  1  0  0  0  0
 10 12  2  0  0  0  0
 11 13  2  0  0  0  0
 11 16  1  0  0  0  0
 12 14  1  0  0  0  0
 12 30  1  0  0  0  0
 13 15  1  0  0  0  0
 13 31  1  0  0  0  0
 14 15  2  0  0  0  0
 14 32  1  0  0  0  0
 15 33  1  0  0  0  0
M  END
> <PUBCHEM_COMPOUND_CID>
18525814

> <PUBCHEM_CONFORMER_RMSD>
0.6

> <PUBCHEM_CONFORMER_DIVERSEORDER>
1
18
20
16
15
17
19
14
27
8
25
24
21
26
11
4
13
10
22
9
23
2
7
12
5
6
3

> <PUBCHEM_MMFF94_PARTIAL_CHARGES>
20
1 -0.81
10 -0.14
11 0.07
12 -0.15
13 -0.15
14 -0.15
15 -0.15
16 0.48
2 -0.81
3 -0.56
30 0.15
31 0.15
32 0.15
33 0.15
4 0.27
5 0.27
6 0.27
7 0.27
8 0.41
9 0.27

> <PUBCHEM_EFFECTIVE_ROTOR_COUNT>
3.2

> <PUBCHEM_PHARMACOPHORE_FEATURES>
5
1 1 cation
1 2 cation
1 3 acceptor
6 1 2 4 5 6 7 rings
6 10 11 12 13 14 15 rings

> <PUBCHEM_HEAVY_ATOM_COUNT>
16

> <PUBCHEM_ATOM_DEF_STEREO_COUNT>
0

> <PUBCHEM_ATOM_UDEF_STEREO_COUNT>
0

> <PUBCHEM_BOND_DEF_STEREO_COUNT>
0

> <PUBCHEM_BOND_UDEF_STEREO_COUNT>
0

> <PUBCHEM_ISOTOPIC_ATOM_COUNT>
0

> <PUBCHEM_COMPONENT_COUNT>
1

> <PUBCHEM_CACTVS_TAUTO_COUNT>
1

> <PUBCHEM_CONFORMER_ID>
011AAE7600000001

> <PUBCHEM_MMFF94_ENERGY>
36.9295

> <PUBCHEM_FEATURE_SELFOVERLAP>
25.374

> <PUBCHEM_SHAPE_FINGERPRINT>
10062212 137 18187637008036580226
12173636 292 18339350873606166173
12363563 72 16056879117859190376
12500047 106 18412258424301952196
12553582 1 17978780539392719555
13764800 53 13695861481202594975
15669948 3 18410565206354680611
15775835 57 18113899316875561797
16752209 62 18270381833695448475
16945 1 18340193194007357537
17870717 6 18059310798255748612
18186145 218 17386011615887423794
19862831 5 18413387626949098048
19868273 293 18408600344726324683
200 152 16343985797322178756
20361792 2 14979954787211545345
20645476 183 18335414652048721743
20645477 56 18410854369296509889
20871999 31 18341887524372491639
21065199 12 8214150638053231924
23402539 116 18201431446332345237
23402655 69 18334295327657798516
23557571 272 18269563886779721662
23559900 14 18202279200531648552
23598291 2 18042106705076916890
25 1 17749391421206081184
26918003 58 11743831456936673941
2748010 2 17838879779406487707
2838139 119 16445569573960645781
3082319 5 18409728456615320624
4028521 119 18040711446364618989
474 4 17458350766485588884
58051976 100 18408889559128627279
633830 44 17022908956434739858
74978 22 18411978074506563304
90525 40 18413107234372795751
93112 12 18411418431778160628
9709674 26 18201721755993409046
9981440 41 17683804694028007056

> <PUBCHEM_SHAPE_MULTIPOLES>
314.33
7.65
2.31
1.01
6.38
1.26
-0.07
-1.89
2.94
-1.83
0.2
0.09
-0.04
-0.49

> <PUBCHEM_SHAPE_SELFOVERLAP>
652.45

> <PUBCHEM_SHAPE_VOLUME>
176.4

> <PUBCHEM_COORDINATE_TYPE>
2
5
10

$$$$
29980915
  -OEChem-01162405103D

 56 58  0     0  0  0  0  0  0999 V2000
   -1.1696    2.9447    0.2172 O   0  0  0  0  0  0  0  0  0  0  0  0
    5.2716   -0.2778   -0.5480 N   0  0  0  0  0  0  0  0  0  0  0  0
    7.3700   -1.5193    1.0057 N   0  0  0  0  0  0  0  0  0  0  0  0
   -1.6380    0.6577   -0.0212 N   0  0  0  0  0  0  0  0  0  0  0  0
   -5.6856   -1.9534    0.5122 N   0  0  0  0  0  0  0  0  0  0  0  0
   -6.8760   -3.5577   -0.6951 N   0  0  0  0  0  0  0  0  0  0  0  0
   -6.2537   -1.6681   -1.8131 N   0  0  0  0  0  0  0  0  0  0  0  0
    5.5777    0.1711    0.8157 C   0  0  0  0  0  0  0  0  0  0  0  0
    6.4744   -0.8226   -1.1898 C   0  0  0  0  0  0  0  0  0  0  0  0
    6.1675   -0.9735    1.6468 C   0  0  0  0  0  0  0  0  0  0  0  0
    7.0654   -1.9667   -0.3588 C   0  0  0  0  0  0  0  0  0  0  0  0
    4.7101    0.8144   -1.3404 C   0  0  0  0  0  0  0  0  0  0  0  0
    7.9299   -2.6126    1.7977 C   0  0  0  0  0  0  0  0  0  0  0  0
    3.2657    1.0690   -1.0000 C   0  0  0  0  0  0  0  0  0  0  0  0
    2.9178    2.1650   -0.2102 C   0  0  0  0  0  0  0  0  0  0  0  0
    2.2756    0.2087   -1.4744 C   0  0  0  0  0  0  0  0  0  0  0  0
    1.5795    2.4003    0.1051 C   0  0  0  0  0  0  0  0  0  0  0  0
    0.9375    0.4442   -1.1591 C   0  0  0  0  0  0  0  0  0  0  0  0
    0.5894    1.5400   -0.3694 C   0  0  0  0  0  0  0  0  0  0  0  0
   -0.8061    1.7860   -0.0413 C   0  0  0  0  0  0  0  0  0  0  0  0
   -3.0192    0.5861    0.2846 C   0  0  0  0  0  0  0  0  0  0  0  0
   -3.6791   -0.6423    0.2506 C   0  0  0  0  0  0  0  0  0  0  0  0
   -3.7194    1.7450    0.6202 C   0  0  0  0  0  0  0  0  0  0  0  0
   -5.7393    0.4466    0.8880 C   0  0  0  0  0  0  0  0  0  0  0  0
   -5.0390   -0.7120    0.5523 C   0  0  0  0  0  0  0  0  0  0  0  0
   -5.0794    1.6752    0.9220 C   0  0  0  0  0  0  0  0  0  0  0  0
   -7.1958    0.3975    1.2160 C   0  0  0  0  0  0  0  0  0  0  0  0
   -6.2318   -2.3458   -0.6132 C   0  0  0  0  0  0  0  0  0  0  0  0
    4.6692    0.5084    1.3267 H   0  0  0  0  0  0  0  0  0  0  0  0
    6.2802    1.0157    0.8044 H   0  0  0  0  0  0  0  0  0  0  0  0
    7.2305   -0.0386   -1.3322 H   0  0  0  0  0  0  0  0  0  0  0  0
    6.2215   -1.2174   -2.1815 H   0  0  0  0  0  0  0  0  0  0  0  0
    6.4222   -0.5831    2.6396 H   0  0  0  0  0  0  0  0  0  0  0  0
    5.4093   -1.7559    1.7881 H   0  0  0  0  0  0  0  0  0  0  0  0
    6.3653   -2.8132   -0.3462 H   0  0  0  0  0  0  0  0  0  0  0  0
    7.9840   -2.3105   -0.8498 H   0  0  0  0  0  0  0  0  0  0  0  0
    4.7383    0.5620   -2.4100 H   0  0  0  0  0  0  0  0  0  0  0  0
    5.3048    1.7335   -1.2479 H   0  0  0  0  0  0  0  0  0  0  0  0
    8.1977   -2.2624    2.8008 H   0  0  0  0  0  0  0  0  0  0  0  0
    8.8520   -2.9863    1.3390 H   0  0  0  0  0  0  0  0  0  0  0  0
    7.2314   -3.4509    1.9002 H   0  0  0  0  0  0  0  0  0  0  0  0
    3.6794    2.8421    0.1672 H   0  0  0  0  0  0  0  0  0  0  0  0
    2.5340   -0.6435   -2.0976 H   0  0  0  0  0  0  0  0  0  0  0  0
    1.3313    3.2571    0.7263 H   0  0  0  0  0  0  0  0  0  0  0  0
    0.2011   -0.2305   -1.5851 H   0  0  0  0  0  0  0  0  0  0  0  0
   -1.2221   -0.2513   -0.2034 H   0  0  0  0  0  0  0  0  0  0  0  0
   -3.1357   -1.5479   -0.0107 H   0  0  0  0  0  0  0  0  0  0  0  0
   -3.2795    2.7309    0.6677 H   0  0  0  0  0  0  0  0  0  0  0  0
   -5.6117    2.5869    1.1807 H   0  0  0  0  0  0  0  0  0  0  0  0
   -7.7811    0.1714    0.3190 H   0  0  0  0  0  0  0  0  0  0  0  0
   -7.3961   -0.3617    1.9794 H   0  0  0  0  0  0  0  0  0  0  0  0
   -7.5544    1.3529    1.6145 H   0  0  0  0  0  0  0  0  0  0  0  0
   -6.9424   -4.1709    0.1100 H   0  0  0  0  0  0  0  0  0  0  0  0
   -7.3031   -3.8738   -1.5588 H   0  0  0  0  0  0  0  0  0  0  0  0
   -5.8241   -0.7567   -1.9257 H   0  0  0  0  0  0  0  0  0  0  0  0
   -6.7075   -2.0643   -2.6291 H   0  0  0  0  0  0  0  0  0  0  0  0
  1 20  2  0  0  0  0
  2  8  1  0  0  0  0
  2  9  1  0  0  0  0
  2 12  1  0  0  0  0
  3 10  1  0  0  0  0
  3 11  1  0  0  0  0
  3 13  1  0  0  0  0
  4 20  1  0  0  0  0
  4 21  1  0  0  0  0
  4 46  1  0  0  0  0
  5 25  1  0  0  0  0
  5 28  2  0  0  0  0
  6 28  1  0  0  0  0
  6 53  1  0  0  0  0
  6 54  1  0  0  0  0
  7 28  1  0  0  0  0
  7 55  1  0  0  0  0
  7 56  1  0  0  0  0
  8 10  1  0  0  0  0
  8 29  1  0  0  0  0
  8 30  1  0  0  0  0
  9 11  1  0  0  0  0
  9 31  1  0  0  0  0
  9 32  1  0  0  0  0
 10 33  1  0  0  0  0
 10 34  1  0  0  0  0
 11 35  1  0  0  0  0
 11 36  1  0  0  0  0
 12 14  1  0  0  0  0
 12 37  1  0  0  0  0
 12 38  1  0  0  0  0
 13 39  1  0  0  0  0
 13 40  1  0  0  0  0
 13 41  1  0  0  0  0
 14 15  2  0  0  0  0
 14 16  1  0  0  0  0
 15 17  1  0  0  0  0
 15 42  1  0  0  0  0
 16 18  2  0  0  0  0
 16 43  1  0  0  0  0
 17 19  2  0  0  0  0
 17 44  1  0  0  0  0
 18 19  1  0  0  0  0
 18 45  1  0  0  0  0
 19 20  1  0  0  0  0
 21 22  2  0  0  0  0
 21 23  1  0  0  0  0
 22 25  1  0  0  0  0
 22 47  1  0  0  0  0
 23 26  2  0  0  0  0
 23 48  1  0  0  0  0
 24 25  2  0  0  0  0
 24 26  1  0  0  0  0
 24 27  1  0  0  0  0
 26 49  1  0  0  0  0
 27 50  1  0  0  0  0
 27 51  1  0  0  0  0
 27 52  1  0  0  0  0
M  END
> <PUBCHEM_COMPOUND_CID>
29980915

> <PUBCHEM_CONFORMER_RMSD>
0.8

> <PUBCHEM_CONFORMER_DIVERSEORDER>
1
39
185
115
269
251
278
167
208
298
309
51
106
150
44
277
179
145
117
302
226
34
212
136
300
73
210
245
184
200
280
151
182
204
235
297
162
248
101
169
261
64
232
274
113
295
206
259
236
253
306
70
31
137
219
191
103
65
122
98
246
104
142
109
123
249
125
88
296
61
209
155
194
154
67
301
294
260
290
82
257
58
160
304
120
292
105
24
138
100
203
279
252
141
284
288
140
190
313
217
220
143
285
181
256
211
96
310
214
193
99
222
197
6
110
159
234
91
21
189
233
139
303
311
158
240
166
281
133
119
107
241
174
45
176
30
2
258
112
84
227
312
195
229
146
152
66
12
71
177
135
129
130
22
69
283
13
230
183
308
263
92
215
53
172
46
75
196
255
202
163
250
111
147
161
50
87
271
42
275
48
293
187
180
267
49
289
128
56
243
213
170
201
231
165
23
272
239
14
268
79
78
37
83
273
175
205
264
164
171
291
95
221
40
3
81
149
156
57
33
199
247
134
16
242
276
77
35
132
20
286
63
282
153
108
29
223
305
89
114
144
188
93
97
207
126
54
228
148
224
237
124
218
36
127
186
47
192
41
307
244
121
225
19
76
43
52
62
198
270
178
10
131
265
32
18
90
4
216
118
60
28
102
173
8
94
86
74
254
116
7
11
287
55
238
9
17
59
157
85
314
299
26
80
38
25
266
68
262
168
5
15
72
27

> <PUBCHEM_MMFF94_PARTIAL_CHARGES>
40
1 -0.57
10 0.27
11 0.27
12 0.41
13 0.27
14 -0.14
15 -0.15
16 -0.15
17 -0.15
18 -0.15
19 0.09
2 -0.81
20 0.54
21 0.12
22 -0.15
23 -0.15
24 -0.14
25 0.18
26 -0.15
27 0.14
28 0.55
3 -0.81
4 -0.55
42 0.15
43 0.15
44 0.15
45 0.15
46 0.37
47 0.15
48 0.15
49 0.15
5 -0.63
53 0.4
54 0.4
55 0.4
56 0.4
6 -0.85
7 -0.85
8 0.27
9 0.27

> <PUBCHEM_EFFECTIVE_ROTOR_COUNT>
7.2

> <PUBCHEM_PHARMACOPHORE_FEATURES>
10
1 1 acceptor
1 2 cation
1 3 cation
1 4 donor
1 6 donor
1 7 donor
4 5 6 7 28 cation
6 14 15 16 17 18 19 rings
6 2 3 8 9 10 11 rings
6 21 22 23 24 25 26 rings

> <PUBCHEM_HEAVY_ATOM_COUNT>
28

> <PUBCHEM_ATOM_DEF_STEREO_COUNT>
0

> <PUBCHEM_ATOM_UDEF_STEREO_COUNT>
0

> <PUBCHEM_BOND_DEF_STEREO_COUNT>
0

> <PUBCHEM_BOND_UDEF_STEREO_COUNT>
0

> <PUBCHEM_ISOTOPIC_ATOM_COUNT>
0

> <PUBCHEM_COMPONENT_COUNT>
1

> <PUBCHEM_CACTVS_TAUTO_COUNT>
4

> <PUBCHEM_CONFORMER_ID>
01C978F300000001

> <PUBCHEM_MMFF94_ENERGY>
89.0247

> <PUBCHEM_FEATURE_SELFOVERLAP>
50.804

> <PUBCHEM_SHAPE_FINGERPRINT>
10 15 17275101730752987056
10319926 262 18060139825385752481
10577160 183 18335693894423010757
11136131 41 17622997311049197353
11475781 23 12829488177820281436
11719270 70 18202290173461057022
11963148 33 18411137992285019630
11973863 73 18335430076088737147
12166972 35 17676778638089404004
12895837 130 9151178654011850719
13533116 47 18040439906433390100
13668630 136 16009041613419194289
13782708 43 18186802504000905765
14347332 77 17822573807297813340
14918687 75 18261387820877082202
15183329 4 17458061573215179274
15188451 53 18343298184378551036
15326921 28 17770516235612686889
15475509 35 18334006161175051752
1577012 14 18337963371156535437
16994733 274 10375872961253396222
190975 80 18273210928806395472
20028762 73 18412547604814619078
20526848 3 10735873972182971130
21130935 74 18202006533931611330
21585481 151 18272375209875634582
21585483 132 18113606898565560882
21637258 2 18040152895106444612
21987483 16 18126277786158311786
22224240 67 15984820402513376509
23081809 10 18334869345520532197
23522609 53 18046664215350850860
23559900 14 17968947525158475001
23569914 152 14710534770178397123
23569943 247 18114462275614376867
25025965 108 18059567045086537351
255183 313 16702295754488329620
3004659 81 18261123971617725796
328310 630 10231759972443089827
3383291 50 18338799017506590243
3504750 166 18263923245968921965
397830 11 16056874771220379126
3986486 107 8285914736229248458
406291 66 18407757053710504090
42767 46 18333724732620834658
465052 167 18409174294840369876
474113 269 18338785776264237615
5085150 59 18059858376680233079
5104073 3 18059864999071384713
531348 171 18114177519825788365
559249 180 18408045087624118721
5718773 13 18410853295617917895
5874358 3 18337934770996172014
5937810 71 12107792878173908654
59682541 52 14779539076829959856
6712543 237 17632578214680979919
96874 4 18259980445186205962

> <PUBCHEM_SHAPE_MULTIPOLES>
540.47
25.01
3.12
1.47
8.24
1.21
0.02
22.7
-5.71
-1.91
-0.02
1.26
0.57
-4.02

> <PUBCHEM_SHAPE_SELFOVERLAP>
1144.852

> <PUBCHEM_SHAPE_VOLUME>
301.9

> <PUBCHEM_COORDINATE_TYPE>
2
5
10

$$$$
71749456
  -OEChem-01162405103D

 69 73  0     0  0  0  0  0  0999 V2000
   -5.6390    1.4831   -0.0444 O   0  5  0  0  0  0  0  0  0  0  0  0
    0.9671   -0.0039   -1.1283 O   0  0  0  0  0  0  0  0  0  0  0  0
   -6.1839    0.3168   -0.5186 N   0  3  0  0  0  0  0  0  0  0  0  0
   -8.3221   -0.3136    1.3767 N   0  0  0  0  0  0  0  0  0  0  0  0
    0.5125   -2.1237   -0.2306 N   0  0  0  0  0  0  0  0  0  0  0  0
    5.3266   -1.4978   -0.0957 N   0  0  0  0  0  0  0  0  0  0  0  0
    4.4306    0.6539    0.1370 N   0  0  0  0  0  0  0  0  0  0  0  0
    6.7534    0.3313   -0.4183 N   0  0  0  0  0  0  0  0  0  0  0  0
    2.2894    4.8726    0.0463 N   0  0  0  0  0  0  0  0  0  0  0  0
   -7.6480    0.5149   -0.8441 C   0  0  0  0  0  0  0  0  0  0  0  0
   -6.0604   -0.7800    0.5162 C   0  0  0  0  0  0  0  0  0  0  0  0
   -8.4739    0.7827    0.4114 C   0  0  0  0  0  0  0  0  0  0  0  0
   -6.9125   -0.4906    1.7493 C   0  0  0  0  0  0  0  0  0  0  0  0
   -5.4383   -0.0765   -1.7628 C   0  0  0  0  0  0  0  0  0  0  0  0
   -3.9773   -0.2897   -1.5130 C   0  0  0  0  0  0  0  0  0  0  0  0
   -9.1415   -0.0717    2.5633 C   0  0  0  0  0  0  0  0  0  0  0  0
   -3.4538   -1.5825   -1.4952 C   0  0  0  0  0  0  0  0  0  0  0  0
   -3.1399    0.8051   -1.2982 C   0  0  0  0  0  0  0  0  0  0  0  0
   -2.0929   -1.7806   -1.2626 C   0  0  0  0  0  0  0  0  0  0  0  0
   -1.7790    0.6069   -1.0655 C   0  0  0  0  0  0  0  0  0  0  0  0
   -1.2555   -0.6860   -1.0475 C   0  0  0  0  0  0  0  0  0  0  0  0
    0.1633   -0.8930   -0.8041 C   0  0  0  0  0  0  0  0  0  0  0  0
    1.8024   -2.6106    0.0948 C   0  0  0  0  0  0  0  0  0  0  0  0
    2.9281   -1.8259   -0.1558 C   0  0  0  0  0  0  0  0  0  0  0  0
    4.1980   -2.3057    0.1647 C   0  0  0  0  0  0  0  0  0  0  0  0
    1.9466   -3.8751    0.6658 C   0  0  0  0  0  0  0  0  0  0  0  0
    4.3422   -3.5703    0.7356 C   0  0  0  0  0  0  0  0  0  0  0  0
    3.2164   -4.3548    0.9862 C   0  0  0  0  0  0  0  0  0  0  0  0
    5.6902   -4.1094    1.0888 C   0  0  0  0  0  0  0  0  0  0  0  0
    5.5122   -0.1034   -0.1283 C   0  0  0  0  0  0  0  0  0  0  0  0
    4.6453    1.9854    0.1007 C   0  0  0  0  0  0  0  0  0  0  0  0
    3.4887    2.8007    0.3845 C   0  0  0  0  0  0  0  0  0  0  0  0
    5.8687    2.5574   -0.1833 C   0  0  0  0  0  0  0  0  0  0  0  0
    6.8969    1.6727   -0.4374 C   0  0  0  0  0  0  0  0  0  0  0  0
    2.4824    2.3478    1.2306 C   0  0  0  0  0  0  0  0  0  0  0  0
    3.3458    4.0592   -0.1775 C   0  0  0  0  0  0  0  0  0  0  0  0
    1.3798    3.1558    1.4852 C   0  0  0  0  0  0  0  0  0  0  0  0
    1.3314    4.3984    0.8741 C   0  0  0  0  0  0  0  0  0  0  0  0
   -7.9860   -0.3951   -1.3539 H   0  0  0  0  0  0  0  0  0  0  0  0
   -7.7003    1.3619   -1.5373 H   0  0  0  0  0  0  0  0  0  0  0  0
   -5.0094   -0.8401    0.8144 H   0  0  0  0  0  0  0  0  0  0  0  0
   -6.3665   -1.7147    0.0315 H   0  0  0  0  0  0  0  0  0  0  0  0
   -8.1756    1.7393    0.8598 H   0  0  0  0  0  0  0  0  0  0  0  0
   -9.5257    0.8745    0.1154 H   0  0  0  0  0  0  0  0  0  0  0  0
   -6.5332    0.3996    2.2676 H   0  0  0  0  0  0  0  0  0  0  0  0
   -6.8143   -1.3372    2.4393 H   0  0  0  0  0  0  0  0  0  0  0  0
   -5.5890    0.7321   -2.4892 H   0  0  0  0  0  0  0  0  0  0  0  0
   -5.9207   -0.9797   -2.1556 H   0  0  0  0  0  0  0  0  0  0  0  0
   -8.8476    0.8429    3.0909 H   0  0  0  0  0  0  0  0  0  0  0  0
  -10.1991    0.0127    2.2897 H   0  0  0  0  0  0  0  0  0  0  0  0
   -9.0647   -0.9125    3.2617 H   0  0  0  0  0  0  0  0  0  0  0  0
   -4.0938   -2.4437   -1.6683 H   0  0  0  0  0  0  0  0  0  0  0  0
   -3.5185    1.8225   -1.3358 H   0  0  0  0  0  0  0  0  0  0  0  0
   -1.7259   -2.8021   -1.2963 H   0  0  0  0  0  0  0  0  0  0  0  0
   -1.1435    1.4734   -0.9012 H   0  0  0  0  0  0  0  0  0  0  0  0
   -0.2344   -2.7604    0.0330 H   0  0  0  0  0  0  0  0  0  0  0  0
    2.8533   -0.8775   -0.6594 H   0  0  0  0  0  0  0  0  0  0  0  0
    1.0778   -4.4971    0.8659 H   0  0  0  0  0  0  0  0  0  0  0  0
    3.3107   -5.3425    1.4297 H   0  0  0  0  0  0  0  0  0  0  0  0
    6.2005   -2.0029   -0.1999 H   0  0  0  0  0  0  0  0  0  0  0  0
    6.2834   -4.2788    0.1843 H   0  0  0  0  0  0  0  0  0  0  0  0
    6.2228   -3.4181    1.7505 H   0  0  0  0  0  0  0  0  0  0  0  0
    5.6187   -5.0662    1.6178 H   0  0  0  0  0  0  0  0  0  0  0  0
    6.0568    3.6233   -0.1945 H   0  0  0  0  0  0  0  0  0  0  0  0
    7.8960    2.0285   -0.6652 H   0  0  0  0  0  0  0  0  0  0  0  0
    2.5324    1.3744    1.7121 H   0  0  0  0  0  0  0  0  0  0  0  0
    4.0707    4.4815   -0.8665 H   0  0  0  0  0  0  0  0  0  0  0  0
    0.5837    2.8239    2.1418 H   0  0  0  0  0  0  0  0  0  0  0  0
    0.4927    5.0665    1.0401 H   0  0  0  0  0  0  0  0  0  0  0  0
  1  3  1  0  0  0  0
  2 22  2  0  0  0  0
  3 10  1  0  0  0  0
  3 11  1  0  0  0  0
  3 14  1  0  0  0  0
  4 12  1  0  0  0  0
  4 13  1  0  0  0  0
  4 16  1  0  0  0  0
  5 22  1  0  0  0  0
  5 23  1  0  0  0  0
  5 56  1  0  0  0  0
  6 25  1  0  0  0  0
  6 30  1  0  0  0  0
  6 60  1  0  0  0  0
  7 30  1  0  0  0  0
  7 31  2  0  0  0  0
  8 30  2  0  0  0  0
  8 34  1  0  0  0  0
  9 36  1  0  0  0  0
  9 38  2  0  0  0  0
 10 12  1  0  0  0  0
 10 39  1  0  0  0  0
 10 40  1  0  0  0  0
 11 13  1  0  0  0  0
 11 41  1  0  0  0  0
 11 42  1  0  0  0  0
 12 43  1  0  0  0  0
 12 44  1  0  0  0  0
 13 45  1  0  0  0  0
 13 46  1  0  0  0  0
 14 15  1  0  0  0  0
 14 47  1  0  0  0  0
 14 48  1  0  0  0  0
 15 17  2  0  0  0  0
 15 18  1  0  0  0  0
 16 49  1  0  0  0  0
 16 50  1  0  0  0  0
 16 51  1  0  0  0  0
 17 19  1  0  0  0  0
 17 52  1  0  0  0  0
 18 20  2  0  0  0  0
 18 53  1  0  0  0  0
 19 21  2  0  0  0  0
 19 54  1  0  0  0  0
 20 21  1  0  0  0  0
 20 55  1  0  0  0  0
 21 22  1  0  0  0  0
 23 24  2  0  0  0  0
 23 26  1  0  0  0  0
 24 25  1  0  0  0  0
 24 57  1  0  0  0  0
 25 27  2  0  0  0  0
 26 28  2  0  0  0  0
 26 58  1  0  0  0  0
 27 28  1  0  0  0  0
 27 29  1  0  0  0  0
 28 59  1  0  0  0  0
 29 61  1  0  0  0  0
 29 62  1  0  0  0  0
 29 63  1  0  0  0  0
 31 32  1  0  0  0  0
 31 33  1  0  0  0  0
 32 35  1  0  0  0  0
 32 36  2  0  0  0  0
 33 34  2  0  0  0  0
 33 64  1  0  0  0  0
 34 65  1  0  0  0  0
 35 37  2  0  0  0  0
 35 66  1  0  0  0  0
 36 67  1  0  0  0  0
 37 38  1  0  0  0  0
 37 68  1  0  0  0  0
 38 69  1  0  0  0  0
M  CHG  2   1  -1   3   1
M  END
> <PUBCHEM_COMPOUND_CID>
71749456

> <PUBCHEM_CONFORMER_RMSD>
1.2

> <PUBCHEM_CONFORMER_DIVERSEORDER>
1
50
25
40
127
68
45
126
93
46
60
29
58
19
96
71
107
59
128
119
79
106
102
70
110
81
54
90
78
87
111
65
121
80
74
41
101
28
123
117
18
77
88
62
118
21
42
72
17
49
73
51
61
105
86
26
52
53
83
16
99
109
69
100
129
44
103
116
34
35
115
108
55
92
98
104
63
14
6
22
113
24
125
38
122
43
94
12
15
66
47
67
36
5
114
23
30
20
48
64
89
112
27
85
9
10
37
31
75
56
32
33
7
130
120
13
124
2
82
91
84
39
97
3
8
57
76
11
95
4

> <PUBCHEM_MMFF94_PARTIAL_CHARGES>
52
1 -0.75
10 0.26
11 0.26
12 0.27
13 0.27
14 0.4
15 -0.14
16 0.27
17 -0.15
18 -0.15
19 -0.15
2 -0.57
20 -0.15
21 0.09
22 0.54
23 0.12
24 -0.15
25 0.1
26 -0.15
27 -0.14
28 -0.15
29 0.14
3 -0.02
30 0.72
31 0.31
33 -0.15
34 0.16
35 -0.15
36 0.16
37 -0.15
38 0.16
4 -0.81
5 -0.55
52 0.15
53 0.15
54 0.15
55 0.15
56 0.37
57 0.15
58 0.15
59 0.15
6 -0.6
60 0.4
64 0.15
65 0.15
66 0.15
67 0.15
68 0.15
69 0.15
7 -0.62
8 -0.62
9 -0.62

> <PUBCHEM_EFFECTIVE_ROTOR_COUNT>
9.2

> <PUBCHEM_PHARMACOPHORE_FEATURES>
13
1 1 anion
1 2 acceptor
1 4 cation
1 5 donor
1 6 donor
1 7 acceptor
1 9 acceptor
4 6 7 8 30 cation
6 15 17 18 19 20 21 rings
6 23 24 25 26 27 28 rings
6 3 4 10 11 12 13 rings
6 7 8 30 31 33 34 rings
6 9 32 35 36 37 38 rings

> <PUBCHEM_HEAVY_ATOM_COUNT>
38

> <PUBCHEM_ATOM_DEF_STEREO_COUNT>
0

> <PUBCHEM_ATOM_UDEF_STEREO_COUNT>
0

> <PUBCHEM_BOND_DEF_STEREO_COUNT>
0

> <PUBCHEM_BOND_UDEF_STEREO_COUNT>
0

> <PUBCHEM_ISOTOPIC_ATOM_COUNT>
0

> <PUBCHEM_COMPONENT_COUNT>
1

> <PUBCHEM_CACTVS_TAUTO_COUNT>
6

> <PUBCHEM_CONFORMER_ID>
0446CF5000000001

> <PUBCHEM_MMFF94_ENERGY>
131.8146

> <PUBCHEM_FEATURE_SELFOVERLAP>
65.972

> <PUBCHEM_SHAPE_FINGERPRINT>
10165383 225 18113900477640397526
10675989 125 18270674407026674392
11115154 58 17418103139493939104
11456790 92 18260820471969125904
12717326 120 15720258217615586043
12925494 130 18267016331085974842
13111901 25 17988370265399096569
13383668 362 17896899836185277515
13947947 74 18199187468398274592
14114211 68 18115040666782082158
14849402 71 18412263956557647437
15183329 4 17704071828395256693
15264996 151 18335700486270006136
15326921 28 16042777108467093768
15328829 1 17561372789857511387
15400415 2 17689422102776062292
15419008 91 17240751853782653111
15439362 3 17909823577268064456
19304671 126 17988652956220823204
21781055 127 16701748154790747591
22033318 11 17986692384774322825
23191077 185 17129289029825231053
23522609 53 18060142050711282175
24893992 56 18339639044051743463
3178227 256 18409731793884284288
394071 54 18273498961712916423
397830 11 17894914031853690303
437795 51 18260550021783430971
44426699 60 17531258249427808374
44426701 97 17167874087983373093
44575985 148 12821919015500955835
5109719 28 18409449206246981591
5776283 40 18192993953790516532
58083652 198 18337099056849877935
5911458 16 17775295962860151081

> <PUBCHEM_SHAPE_MULTIPOLES>
735.42
23.45
5.82
1.59
47.69
1.1
-0.36
1.44
-7.55
-14.27
-2.28
3.51
-0.16
-1.13

> <PUBCHEM_SHAPE_SELFOVERLAP>
1599.032

> <PUBCHEM_SHAPE_VOLUME>
398.3

> <PUBCHEM_COORDINATE_TYPE>
2
5
10

$$$$
11286656
  -OEChem-01162405103D

 24 24  0     0  0  0  0  0  0999 V2000
    1.4480    0.2044   -0.8326 N   0  0  0  0  0  0  0  0  0  0  0  0
   -3.0158    1.8756    0.0125 N   0  0  0  0  0  0  0  0  0  0  0  0
    3.6395    0.7665   -0.2587 N   0  0  0  0  0  0  0  0  0  0  0  0
    2.1180    0.6552    1.4386 N   0  0  0  0  0  0  0  0  0  0  0  0
   -0.2919   -1.3199   -0.0882 C   0  0  0  0  0  0  0  0  0  0  0  0
    0.1253   -0.0365   -0.4413 C   0  0  0  0  0  0  0  0  0  0  0  0
   -0.7794    1.0248   -0.4080 C   0  0  0  0  0  0  0  0  0  0  0  0
   -1.6136   -1.5421    0.2982 C   0  0  0  0  0  0  0  0  0  0  0  0
   -2.1012    0.8026   -0.0216 C   0  0  0  0  0  0  0  0  0  0  0  0
   -2.5182   -0.4809    0.3314 C   0  0  0  0  0  0  0  0  0  0  0  0
    0.6588   -2.4717   -0.1137 C   0  0  0  0  0  0  0  0  0  0  0  0
    2.3304    0.5219    0.0834 C   0  0  0  0  0  0  0  0  0  0  0  0
   -0.4524    2.0250   -0.6844 H   0  0  0  0  0  0  0  0  0  0  0  0
   -1.9543   -2.5354    0.5780 H   0  0  0  0  0  0  0  0  0  0  0  0
   -3.5454   -0.6666    0.6347 H   0  0  0  0  0  0  0  0  0  0  0  0
    1.1759   -2.5270   -1.0775 H   0  0  0  0  0  0  0  0  0  0  0  0
    1.3980   -2.3737    0.6878 H   0  0  0  0  0  0  0  0  0  0  0  0
    0.1419   -3.4274    0.0259 H   0  0  0  0  0  0  0  0  0  0  0  0
   -3.9744    1.7150    0.2920 H   0  0  0  0  0  0  0  0  0  0  0  0
   -2.7142    2.8063   -0.2437 H   0  0  0  0  0  0  0  0  0  0  0  0
    3.9489    0.7062   -1.2227 H   0  0  0  0  0  0  0  0  0  0  0  0
    4.3329    1.0122    0.4393 H   0  0  0  0  0  0  0  0  0  0  0  0
    2.8757    0.9059    2.0645 H   0  0  0  0  0  0  0  0  0  0  0  0
    1.2071    0.5078    1.8590 H   0  0  0  0  0  0  0  0  0  0  0  0
  1  6  1  0  0  0  0
  1 12  2  0  0  0  0
  2  9  1  0  0  0  0
  2 19  1  0  0  0  0
  2 20  1  0  0  0  0
  3 12  1  0  0  0  0
  3 21  1  0  0  0  0
  3 22  1  0  0  0  0
  4 12  1  0  0  0  0
  4 23  1  0  0  0  0
  4 24  1  0  0  0  0
  5  6  2  0  0  0  0
  5  8  1  0  0  0  0
  5 11  1  0  0  0  0
  6  7  1  0  0  0  0
  7  9  2  0  0  0  0
  7 13  1  0  0  0  0
  8 10  2  0  0  0  0
  8 14  1  0  0  0  0
  9 10  1  0  0  0  0
 10 15  1  0  0  0  0
 11 16  1  0  0  0  0
 11 17  1  0  0  0  0
 11 18  1  0  0  0  0
M  END
> <PUBCHEM_COMPOUND_CID>
11286656

> <PUBCHEM_CONFORMER_RMSD>
0.4

> <PUBCHEM_CONFORMER_DIVERSEORDER>
2
1

> <PUBCHEM_MMFF94_PARTIAL_CHARGES>
21
1 -0.63
10 -0.15
11 0.14
12 0.55
13 0.15
14 0.15
15 0.15
19 0.4
2 -0.9
20 0.4
21 0.4
22 0.4
23 0.4
24 0.4
3 -0.85
4 -0.85
5 -0.14
6 0.18
7 -0.15
8 -0.15
9 0.1

> <PUBCHEM_EFFECTIVE_ROTOR_COUNT>
1

> <PUBCHEM_PHARMACOPHORE_FEATURES>
6
1 2 cation
1 2 donor
1 3 donor
1 4 donor
4 1 3 4 12 cation
6 5 6 7 8 9 10 rings

> <PUBCHEM_HEAVY_ATOM_COUNT>
12

> <PUBCHEM_ATOM_DEF_STEREO_COUNT>
0

> <PUBCHEM_ATOM_UDEF_STEREO_COUNT>
0

> <PUBCHEM_BOND_DEF_STEREO_COUNT>
0

> <PUBCHEM_BOND_UDEF_STEREO_COUNT>
0

> <PUBCHEM_ISOTOPIC_ATOM_COUNT>
0

> <PUBCHEM_COMPONENT_COUNT>
1

> <PUBCHEM_CACTVS_TAUTO_COUNT>
2

> <PUBCHEM_CONFORMER_ID>
00AC388000000002

> <PUBCHEM_MMFF94_ENERGY>
48.4144

> <PUBCHEM_FEATURE_SELFOVERLAP>
30.501

> <PUBCHEM_SHAPE_FINGERPRINT>
10857977 72 18338799047417243449
12423570 1 10666667493015201285
12932764 1 17775004634753670374
13024252 1 13551737565732165855
13380535 21 18266754505874754639
13380535 76 18335980879041006407
13839132 238 18342183232411950261
14325111 11 18410295804652130932
15775835 57 18410294700676711448
16945 1 18336835294075605407
19422 9 17749390407920768778
20510252 161 18270124637662570673
20511035 2 18191600648591518759
20645464 45 17988072421995487000
20871998 184 18196381543744151374
21040471 1 18336554828294740711
21501502 16 18338511933133045043
23211744 41 18060140980636658615
23235685 24 18408882919114696229
23402539 116 18198898300549256519
23559900 14 18272940415018689180
2748010 2 18190756240983550807
305870 269 18337390444009805458
369184 2 17845935242004802542
5084963 1 18058740232908670394
53812653 166 18342743983532065505
54338 74 17905030796679406847
7364860 26 18054791684874669343
81228 2 17623278781683116722

> <PUBCHEM_SHAPE_MULTIPOLES>
227.03
4.37
2.02
0.84
1.74
0.99
-0.16
-2.22
-0.42
-0.68
0.03
0.34
-0.09
0.22

> <PUBCHEM_SHAPE_SELFOVERLAP>
471.628

> <PUBCHEM_SHAPE_VOLUME>
128.9

> <PUBCHEM_COORDINATE_TYPE>
2
5
10

$$$$
69773668
  -OEChem-01162405103D

 68 72  0     0  0  0  0  0  0999 V2000
    1.4232   -3.2446   -0.3681 O   0  0  0  0  0  0  0  0  0  0  0  0
    7.6506    0.4324    0.0360 N   0  0  0  0  0  0  0  0  0  0  0  0
    9.2450    2.3353   -1.4455 N   0  0  0  0  0  0  0  0  0  0  0  0
    0.8820   -1.2075    0.6633 N   0  0  0  0  0  0  0  0  0  0  0  0
   -3.4127    0.8715    1.7253 N   0  0  0  0  0  0  0  0  0  0  0  0
   -5.3671    0.7351    0.4415 N   0  0  0  0  0  0  0  0  0  0  0  0
   -5.1069    2.4375    2.1273 N   0  0  0  0  0  0  0  0  0  0  0  0
   -8.4027    0.6511   -3.0287 N   0  0  0  0  0  0  0  0  0  0  0  0
    7.6557    0.4433   -1.4319 C   0  0  0  0  0  0  0  0  0  0  0  0
    8.9339    0.9198    0.5562 C   0  0  0  0  0  0  0  0  0  0  0  0
    7.9620    1.8469   -1.9655 C   0  0  0  0  0  0  0  0  0  0  0  0
    9.2415    2.3231    0.0225 C   0  0  0  0  0  0  0  0  0  0  0  0
    7.3593   -0.9066    0.5444 C   0  0  0  0  0  0  0  0  0  0  0  0
    9.5345    3.6751   -1.9528 C   0  0  0  0  0  0  0  0  0  0  0  0
    5.8941   -1.2381    0.4437 C   0  0  0  0  0  0  0  0  0  0  0  0
    4.9906   -0.6905    1.3545 C   0  0  0  0  0  0  0  0  0  0  0  0
    5.4404   -2.0931   -0.5608 C   0  0  0  0  0  0  0  0  0  0  0  0
    3.6333   -0.9978    1.2608 C   0  0  0  0  0  0  0  0  0  0  0  0
    4.0831   -2.4003   -0.6544 C   0  0  0  0  0  0  0  0  0  0  0  0
    3.1795   -1.8529    0.2564 C   0  0  0  0  0  0  0  0  0  0  0  0
    1.7643   -2.1737    0.1597 C   0  0  0  0  0  0  0  0  0  0  0  0
   -0.5342   -1.2319    0.6835 C   0  0  0  0  0  0  0  0  0  0  0  0
   -1.2624   -0.1593    1.1981 C   0  0  0  0  0  0  0  0  0  0  0  0
   -2.6565   -0.2031    1.2071 C   0  0  0  0  0  0  0  0  0  0  0  0
   -1.2001   -2.3484    0.1776 C   0  0  0  0  0  0  0  0  0  0  0  0
   -0.5484    1.0397    1.7412 C   0  0  0  0  0  0  0  0  0  0  0  0
   -3.3226   -1.3197    0.7014 C   0  0  0  0  0  0  0  0  0  0  0  0
   -2.5944   -2.3921    0.1867 C   0  0  0  0  0  0  0  0  0  0  0  0
   -4.6903    1.3729    1.4156 C   0  0  0  0  0  0  0  0  0  0  0  0
   -6.5892    1.2399    0.1733 C   0  0  0  0  0  0  0  0  0  0  0  0
   -7.3179    0.5591   -0.8701 C   0  0  0  0  0  0  0  0  0  0  0  0
   -7.1314    2.3257    0.8301 C   0  0  0  0  0  0  0  0  0  0  0  0
   -6.3371    2.8900    1.8074 C   0  0  0  0  0  0  0  0  0  0  0  0
   -7.6399   -0.7887   -0.7575 C   0  0  0  0  0  0  0  0  0  0  0  0
   -7.7187    1.2281   -2.0155 C   0  0  0  0  0  0  0  0  0  0  0  0
   -8.3429   -1.4176   -1.7792 C   0  0  0  0  0  0  0  0  0  0  0  0
   -8.6979   -0.6602   -2.8838 C   0  0  0  0  0  0  0  0  0  0  0  0
    6.6756    0.1531   -1.8260 H   0  0  0  0  0  0  0  0  0  0  0  0
    8.3924   -0.2686   -1.8288 H   0  0  0  0  0  0  0  0  0  0  0  0
    9.7496    0.2343    0.2890 H   0  0  0  0  0  0  0  0  0  0  0  0
    8.8964    0.9727    1.6512 H   0  0  0  0  0  0  0  0  0  0  0  0
    7.1447    2.5302   -1.6972 H   0  0  0  0  0  0  0  0  0  0  0  0
    8.0008    1.7987   -3.0606 H   0  0  0  0  0  0  0  0  0  0  0  0
   10.2264    2.6265    0.3979 H   0  0  0  0  0  0  0  0  0  0  0  0
    8.5067    3.0374    0.4182 H   0  0  0  0  0  0  0  0  0  0  0  0
    7.6216   -0.9744    1.6098 H   0  0  0  0  0  0  0  0  0  0  0  0
    7.9719   -1.6730    0.0500 H   0  0  0  0  0  0  0  0  0  0  0  0
    8.7807    4.4080   -1.6433 H   0  0  0  0  0  0  0  0  0  0  0  0
   10.5134    4.0169   -1.5986 H   0  0  0  0  0  0  0  0  0  0  0  0
    9.5810    3.6697   -3.0475 H   0  0  0  0  0  0  0  0  0  0  0  0
    5.3339   -0.0302    2.1467 H   0  0  0  0  0  0  0  0  0  0  0  0
    6.1335   -2.5253   -1.2777 H   0  0  0  0  0  0  0  0  0  0  0  0
    2.9776   -0.5796    2.0185 H   0  0  0  0  0  0  0  0  0  0  0  0
    3.7505   -3.0645   -1.4480 H   0  0  0  0  0  0  0  0  0  0  0  0
    1.2914   -0.3562    1.0285 H   0  0  0  0  0  0  0  0  0  0  0  0
   -0.7149   -3.2229   -0.2296 H   0  0  0  0  0  0  0  0  0  0  0  0
   -0.1288    0.8144    2.7270 H   0  0  0  0  0  0  0  0  0  0  0  0
    0.2572    1.3561    1.0693 H   0  0  0  0  0  0  0  0  0  0  0  0
   -1.1745    1.9307    1.8329 H   0  0  0  0  0  0  0  0  0  0  0  0
   -4.4019   -1.4225    0.7323 H   0  0  0  0  0  0  0  0  0  0  0  0
   -3.1136   -3.2666   -0.1951 H   0  0  0  0  0  0  0  0  0  0  0  0
   -2.9596    1.4115    2.4538 H   0  0  0  0  0  0  0  0  0  0  0  0
   -8.1154    2.7213    0.6108 H   0  0  0  0  0  0  0  0  0  0  0  0
   -6.6786    3.7468    2.3783 H   0  0  0  0  0  0  0  0  0  0  0  0
   -7.3535   -1.3636    0.1197 H   0  0  0  0  0  0  0  0  0  0  0  0
   -7.4961    2.2801   -2.1709 H   0  0  0  0  0  0  0  0  0  0  0  0
   -8.6051   -2.4673   -1.7128 H   0  0  0  0  0  0  0  0  0  0  0  0
   -9.2471   -1.1036   -3.7078 H   0  0  0  0  0  0  0  0  0  0  0  0
  1 21  2  0  0  0  0
  2  9  1  0  0  0  0
  2 10  1  0  0  0  0
  2 13  1  0  0  0  0
  3 11  1  0  0  0  0
  3 12  1  0  0  0  0
  3 14  1  0  0  0  0
  4 21  1  0  0  0  0
  4 22  1  0  0  0  0
  4 55  1  0  0  0  0
  5 24  1  0  0  0  0
  5 29  1  0  0  0  0
  5 62  1  0  0  0  0
  6 29  1  0  0  0  0
  6 30  2  0  0  0  0
  7 29  2  0  0  0  0
  7 33  1  0  0  0  0
  8 35  1  0  0  0  0
  8 37  2  0  0  0  0
  9 11  1  0  0  0  0
  9 38  1  0  0  0  0
  9 39  1  0  0  0  0
 10 12  1  0  0  0  0
 10 40  1  0  0  0  0
 10 41  1  0  0  0  0
 11 42  1  0  0  0  0
 11 43  1  0  0  0  0
 12 44  1  0  0  0  0
 12 45  1  0  0  0  0
 13 15  1  0  0  0  0
 13 46  1  0  0  0  0
 13 47  1  0  0  0  0
 14 48  1  0  0  0  0
 14 49  1  0  0  0  0
 14 50  1  0  0  0  0
 15 16  2  0  0  0  0
 15 17  1  0  0  0  0
 16 18  1  0  0  0  0
 16 51  1  0  0  0  0
 17 19  2  0  0  0  0
 17 52  1  0  0  0  0
 18 20  2  0  0  0  0
 18 53  1  0  0  0  0
 19 20  1  0  0  0  0
 19 54  1  0  0  0  0
 20 21  1  0  0  0  0
 22 23  1  0  0  0  0
 22 25  2  0  0  0  0
 23 24  2  0  0  0  0
 23 26  1  0  0  0  0
 24 27  1  0  0  0  0
 25 28  1  0  0  0  0
 25 56  1  0  0  0  0
 26 57  1  0  0  0  0
 26 58  1  0  0  0  0
 26 59  1  0  0  0  0
 27 28  2  0  0  0  0
 27 60  1  0  0  0  0
 28 61  1  0  0  0  0
 30 31  1  0  0  0  0
 30 32  1  0  0  0  0
 31 34  1  0  0  0  0
 31 35  2  0  0  0  0
 32 33  2  0  0  0  0
 32 63  1  0  0  0  0
 33 64  1  0  0  0  0
 34 36  2  0  0  0  0
 34 65  1  0  0  0  0
 35 66  1  0  0  0  0
 36 37  1  0  0  0  0
 36 67  1  0  0  0  0
 37 68  1  0  0  0  0
M  END
> <PUBCHEM_COMPOUND_CID>
69773668

> <PUBCHEM_CONFORMER_RMSD>
1

> <PUBCHEM_CONFORMER_DIVERSEORDER>
1
103
23
83
46
99
58
124
92
89
123
36
113
50
24
19
111
12
20
128
90
93
16
14
85
29
73
37
71
43
56
52
105
118
40
82
112
62
69
119
102
39
15
64
77
114
27
94
74
22
33
61
97
34
87
57
18
95
72
67
127
35
109
121
107
28
80
26
49
54
126
110
115
88
45
120
59
75
9
108
63
91
101
96
106
13
55
86
76
2
117
65
84
78
17
48
81
6
8
30
41
66
38
25
68
31
116
42
125
32
21
11
4
122
104
5
51
47
100
60
44
53
70
10
79
7
3
98

> <PUBCHEM_MMFF94_PARTIAL_CHARGES>
51
1 -0.57
10 0.27
11 0.27
12 0.27
13 0.41
14 0.27
15 -0.14
16 -0.15
17 -0.15
18 -0.15
19 -0.15
2 -0.81
20 0.09
21 0.54
22 0.12
23 -0.14
24 0.1
25 -0.15
26 0.14
27 -0.15
28 -0.15
29 0.72
3 -0.81
30 0.31
32 -0.15
33 0.16
34 -0.15
35 0.16
36 -0.15
37 0.16
4 -0.55
5 -0.6
51 0.15
52 0.15
53 0.15
54 0.15
55 0.37
56 0.15
6 -0.62
60 0.15
61 0.15
62 0.4
63 0.15
64 0.15
65 0.15
66 0.15
67 0.15
68 0.15
7 -0.62
8 -0.62
9 0.27

> <PUBCHEM_EFFECTIVE_ROTOR_COUNT>
9.2

> <PUBCHEM_PHARMACOPHORE_FEATURES>
13
1 1 acceptor
1 2 cation
1 3 cation
1 4 donor
1 5 donor
1 6 acceptor
1 8 acceptor
4 5 6 7 29 cation
6 15 16 17 18 19 20 rings
6 2 3 9 10 11 12 rings
6 22 23 24 25 27 28 rings
6 6 7 29 30 32 33 rings
6 8 31 34 35 36 37 rings

> <PUBCHEM_HEAVY_ATOM_COUNT>
37

> <PUBCHEM_ATOM_DEF_STEREO_COUNT>
0

> <PUBCHEM_ATOM_UDEF_STEREO_COUNT>
0

> <PUBCHEM_BOND_DEF_STEREO_COUNT>
0

> <PUBCHEM_BOND_UDEF_STEREO_COUNT>
0

> <PUBCHEM_ISOTOPIC_ATOM_COUNT>
0

> <PUBCHEM_COMPONENT_COUNT>
1

> <PUBCHEM_CACTVS_TAUTO_COUNT>
6

> <PUBCHEM_CONFORMER_ID>
0428A96400000001

> <PUBCHEM_MMFF94_ENERGY>
129.7637

> <PUBCHEM_FEATURE_SELFOVERLAP>
65.975

> <PUBCHEM_SHAPE_FINGERPRINT>
10076449 9 16558743534131540371
10190206 1 18272644633432569011
10280341 67 18340203116273965608
10533779 1 18262800791918671964
11146346 142 18057032726613501180
11456790 92 12829495835187937470
11578821 258 18259708903883912220
11621639 254 18410005529931574701
11761917 87 12031786972033990588
11973864 196 18114743862608110797
12124843 1 17775010038065030822
131241 285 18260828241127920116
13383668 254 16443626912791869510
13553643 46 17676205758762626364
13627175 4 11312062024222848276
13947947 19 18412263943198044040
15274700 259 17822557348814369589
15461852 350 17489586757869395099
15554971 5 18271805679710296554
15664458 18 17488733622862893127
1577012 14 18200307694441900931
15840311 113 18186527588605021766
16728433 281 18131357362886245081
16758388 162 11891347443452596759
16991971 28 16272202003228302529
1818759 1 12391515304101444110
20105231 36 12967125021330462253
2026 5 11815633943525211020
20609170 114 17169559725245393363
20766409 102 18342749537515539001
20982279 24 12751246942682209036
21585482 57 18410571790876889004
21772523 7 17821998843851458645
21792938 324 15502374560675179254
21867018 265 17060334137204788927
24771293 8 18411140199428178193
25242607 90 8286201609763103748
2835820 25 14490465370827561911
306946 40 16950557787721989909
3383291 50 9151168719584508544
3711267 37 18186525410149410756
397638 5 15864067671921927599
4073 2 18408893918674427538
4169191 19 18335708221584798881
4258327 124 18411145748773604530
4403749 210 17677060130341007803
4516262 110 18186521017168103650
45377200 153 14979666736645049967
4616759 239 13767933395305605157
4756326 101 16950551169847455703
54583773 228 18339924913207434463
6636735 143 15647346276445364712
6673363 416 17632856434230690609
9980921 7 18113901601750528494

> <PUBCHEM_SHAPE_MULTIPOLES>
720.71
37.19
3.51
2.29
26.1
1.03
-1.23
28.34
-23.52
4.18
-0.36
-4.3
1.34
-5.89

> <PUBCHEM_SHAPE_SELFOVERLAP>
1565.995

> <PUBCHEM_SHAPE_VOLUME>
390.3

> <PUBCHEM_COORDINATE_TYPE>
2
5
10

$$$$
135029392
  -OEChem-01162405103D

 50 53  0     0  0  0  0  0  0999 V2000
   -0.8731   -0.0284    0.7617 O   0  0  0  0  0  0  0  0  0  0  0  0
   -7.7450   -1.2045    0.1973 O   0  0  0  0  0  0  0  0  0  0  0  0
    3.5693    1.5547    0.5124 N   0  0  0  0  0  0  0  0  0  0  0  0
   -1.2056    2.0876   -0.1966 N   0  0  0  0  0  0  0  0  0  0  0  0
    2.7708   -0.6123    0.1211 N   0  0  0  0  0  0  0  0  0  0  0  0
    4.9535   -0.2486    1.0754 N   0  0  0  0  0  0  0  0  0  0  0  0
    0.7310   -4.8716   -0.1751 N   0  0  0  0  0  0  0  0  0  0  0  0
    2.4878    2.3425    0.0603 C   0  0  0  0  0  0  0  0  0  0  0  0
    2.7046    3.6128   -0.4733 C   0  0  0  0  0  0  0  0  0  0  0  0
    0.1114    2.6010   -0.2897 C   0  0  0  0  0  0  0  0  0  0  0  0
    1.1912    1.8365    0.1522 C   0  0  0  0  0  0  0  0  0  0  0  0
    1.6247    4.3772   -0.9153 C   0  0  0  0  0  0  0  0  0  0  0  0
    0.3281    3.8713   -0.8235 C   0  0  0  0  0  0  0  0  0  0  0  0
    4.0825    4.1797   -0.5837 C   0  0  0  0  0  0  0  0  0  0  0  0
    3.7740    0.1639    0.5735 C   0  0  0  0  0  0  0  0  0  0  0  0
   -1.6256    0.8470    0.3040 C   0  0  0  0  0  0  0  0  0  0  0  0
   -3.0604    0.6114    0.2946 C   0  0  0  0  0  0  0  0  0  0  0  0
    3.0022   -1.9397    0.1911 C   0  0  0  0  0  0  0  0  0  0  0  0
    1.9295   -2.7753   -0.2929 C   0  0  0  0  0  0  0  0  0  0  0  0
   -3.9445    1.6882    0.3617 C   0  0  0  0  0  0  0  0  0  0  0  0
   -3.5525   -0.6915    0.2179 C   0  0  0  0  0  0  0  0  0  0  0  0
    4.1680   -2.4898    0.6836 C   0  0  0  0  0  0  0  0  0  0  0  0
   -5.8131    0.1592    0.2752 C   0  0  0  0  0  0  0  0  0  0  0  0
   -5.3208    1.4621    0.3519 C   0  0  0  0  0  0  0  0  0  0  0  0
   -4.9289   -0.9176    0.2083 C   0  0  0  0  0  0  0  0  0  0  0  0
    5.1181   -1.5872    1.1160 C   0  0  0  0  0  0  0  0  0  0  0  0
    1.0783   -2.3368   -1.3011 C   0  0  0  0  0  0  0  0  0  0  0  0
    1.7155   -4.0396    0.2323 C   0  0  0  0  0  0  0  0  0  0  0  0
    0.0535   -3.1642   -1.7468 C   0  0  0  0  0  0  0  0  0  0  0  0
   -7.2479   -0.0767    0.2642 C   0  0  0  0  0  0  0  0  0  0  0  0
   -0.0765   -4.4111   -1.1567 C   0  0  0  0  0  0  0  0  0  0  0  0
    1.0483    0.8838    0.6326 H   0  0  0  0  0  0  0  0  0  0  0  0
    1.7755    5.3691   -1.3331 H   0  0  0  0  0  0  0  0  0  0  0  0
   -0.5044    4.4777   -1.1713 H   0  0  0  0  0  0  0  0  0  0  0  0
    4.4011    2.0758    0.7693 H   0  0  0  0  0  0  0  0  0  0  0  0
    4.5048    4.3551    0.4111 H   0  0  0  0  0  0  0  0  0  0  0  0
    4.7364    3.5027   -1.1437 H   0  0  0  0  0  0  0  0  0  0  0  0
    4.0858    5.1381   -1.1147 H   0  0  0  0  0  0  0  0  0  0  0  0
   -1.9073    2.7115   -0.5854 H   0  0  0  0  0  0  0  0  0  0  0  0
   -3.6098    2.7165    0.4615 H   0  0  0  0  0  0  0  0  0  0  0  0
   -2.8806   -1.5440    0.1590 H   0  0  0  0  0  0  0  0  0  0  0  0
    4.3724   -3.5520    0.7250 H   0  0  0  0  0  0  0  0  0  0  0  0
   -5.9976    2.3105    0.4130 H   0  0  0  0  0  0  0  0  0  0  0  0
   -5.2898   -1.9409    0.1466 H   0  0  0  0  0  0  0  0  0  0  0  0
    6.0688   -1.9251    1.5145 H   0  0  0  0  0  0  0  0  0  0  0  0
    1.1925   -1.3598   -1.7640 H   0  0  0  0  0  0  0  0  0  0  0  0
    2.3168   -4.4519    1.0366 H   0  0  0  0  0  0  0  0  0  0  0  0
   -0.6217   -2.8436   -2.5319 H   0  0  0  0  0  0  0  0  0  0  0  0
   -7.8967    0.8140    0.3192 H   0  0  0  0  0  0  0  0  0  0  0  0
   -0.8598   -5.0941   -1.4687 H   0  0  0  0  0  0  0  0  0  0  0  0
  1 16  2  0  0  0  0
  2 30  2  0  0  0  0
  3  8  1  0  0  0  0
  3 15  1  0  0  0  0
  3 35  1  0  0  0  0
  4 10  1  0  0  0  0
  4 16  1  0  0  0  0
  4 39  1  0  0  0  0
  5 15  1  0  0  0  0
  5 18  2  0  0  0  0
  6 15  2  0  0  0  0
  6 26  1  0  0  0  0
  7 28  1  0  0  0  0
  7 31  2  0  0  0  0
  8  9  2  0  0  0  0
  8 11  1  0  0  0  0
  9 12  1  0  0  0  0
  9 14  1  0  0  0  0
 10 11  2  0  0  0  0
 10 13  1  0  0  0  0
 11 32  1  0  0  0  0
 12 13  2  0  0  0  0
 12 33  1  0  0  0  0
 13 34  1  0  0  0  0
 14 36  1  0  0  0  0
 14 37  1  0  0  0  0
 14 38  1  0  0  0  0
 16 17  1  0  0  0  0
 17 20  2  0  0  0  0
 17 21  1  0  0  0  0
 18 19  1  0  0  0  0
 18 22  1  0  0  0  0
 19 27  1  0  0  0  0
 19 28  2  0  0  0  0
 20 24  1  0  0  0  0
 20 40  1  0  0  0  0
 21 25  2  0  0  0  0
 21 41  1  0  0  0  0
 22 26  2  0  0  0  0
 22 42  1  0  0  0  0
 23 24  2  0  0  0  0
 23 25  1  0  0  0  0
 23 30  1  0  0  0  0
 24 43  1  0  0  0  0
 25 44  1  0  0  0  0
 26 45  1  0  0  0  0
 27 29  2  0  0  0  0
 27 46  1  0  0  0  0
 28 47  1  0  0  0  0
 29 31  1  0  0  0  0
 29 48  1  0  0  0  0
 30 49  1  0  0  0  0
 31 50  1  0  0  0  0
M  END
> <PUBCHEM_COMPOUND_CID>
135029392

> <PUBCHEM_CONFORMER_RMSD>
1

> <PUBCHEM_CONFORMER_DIVERSEORDER>
1
66
49
42
65
67
41
25
6
68
59
47
46
20
22
27
45
43
54
13
69
23
50
64
58
21
29
36
51
33
12
28
38
15
60
32
34
61
26
14
35
2
30
44
9
48
53
39
8
56
31
16
40
55
4
63
52
10
57
62
17
5
37
18
7
24
19
11
3

> <PUBCHEM_MMFF94_PARTIAL_CHARGES>
46
1 -0.57
10 0.12
11 -0.15
12 -0.15
13 -0.15
14 0.14
15 0.72
16 0.54
17 0.09
18 0.31
2 -0.57
20 -0.15
21 -0.15
22 -0.15
23 0.09
24 -0.15
25 -0.15
26 0.16
27 -0.15
28 0.16
29 -0.15
3 -0.6
30 0.42
31 0.16
32 0.15
33 0.15
34 0.15
35 0.4
39 0.37
4 -0.55
40 0.15
41 0.15
42 0.15
43 0.15
44 0.15
45 0.15
46 0.15
47 0.15
48 0.15
49 0.06
5 -0.62
50 0.15
6 -0.62
7 -0.62
8 0.1
9 -0.14

> <PUBCHEM_EFFECTIVE_ROTOR_COUNT>
7

> <PUBCHEM_PHARMACOPHORE_FEATURES>
11
1 1 acceptor
1 2 acceptor
1 3 donor
1 4 donor
1 5 acceptor
1 7 acceptor
4 3 5 6 15 cation
6 17 20 21 23 24 25 rings
6 5 6 15 18 22 26 rings
6 7 19 27 28 29 31 rings
6 8 9 10 11 12 13 rings

> <PUBCHEM_HEAVY_ATOM_COUNT>
31

> <PUBCHEM_ATOM_DEF_STEREO_COUNT>
0

> <PUBCHEM_ATOM_UDEF_STEREO_COUNT>
0

> <PUBCHEM_BOND_DEF_STEREO_COUNT>
0

> <PUBCHEM_BOND_UDEF_STEREO_COUNT>
0

> <PUBCHEM_ISOTOPIC_ATOM_COUNT>
0

> <PUBCHEM_COMPONENT_COUNT>
1

> <PUBCHEM_CACTVS_TAUTO_COUNT>
112

> <PUBCHEM_CONFORMER_ID>
080C629000000001

> <PUBCHEM_MMFF94_ENERGY>
111.0884

> <PUBCHEM_FEATURE_SELFOVERLAP>
55.823

> <PUBCHEM_SHAPE_FINGERPRINT>
1100329 8 18267300018798972468
11513181 2 17986963049065492582
12202916 173 18187920638849951818
13533116 47 18411419557418886305
1361 2 18410855490272112875
140371 6 18193562164076366945
14117953 113 18340768152404560534
15250474 111 18198898292238643375
15320467 1 18410011009850901435
15420108 30 17977089490920689552
15483637 11 17904484356665180707
15484559 13 18338808895729943294
15927050 60 18123192578701849972
16728300 4 17608626359699459338
17138139 8 17342642689900761543
19301679 30 18336555950136338817
1979834 28 18201153269779488386
20028762 73 18343582945232239479
21197605 99 18341332279527829779
21304303 94 18269014114429946068
22113638 7 18411130368574792982
23559900 14 18411129230714720401
255183 313 17985517045778802346
338550 245 18269831068068490775
3421961 26 18408039611203700048
38695281 34 18266465497525712137
394071 54 18271536278203010019
437795 96 18120643635681036221
469060 322 17980725347686122438
5309563 4 18265896860734468804
653340 110 17260741271143813232
7399639 24 18125143949737189162

> <PUBCHEM_SHAPE_MULTIPOLES>
601.32
13.16
6.88
1.03
26.1
0.86
-0.24
0.72
4.23
-8.15
-2.79
-0.61
0.48
-1.19

> <PUBCHEM_SHAPE_SELFOVERLAP>
1324.973

> <PUBCHEM_SHAPE_VOLUME>
319.5

> <PUBCHEM_COORDINATE_TYPE>
2
5
10

$$$$
22505825
  -OEChem-01162405103D

 20 19  0     1  0  0  0  0  0999 V2000
    1.0409    0.4934    0.5408 O   0  0  0  0  0  0  0  0  0  0  0  0
   -1.1696   -0.1731   -0.2101 N   0  0  0  0  0  0  0  0  0  0  0  0
    0.2919   -0.2621   -0.4225 C   0  0  2  0  0  0  0  0  0  0  0  0
    0.7698   -1.7178   -0.4055 C   0  0  0  0  0  0  0  0  0  0  0  0
   -1.5598   -0.2915    1.1956 C   0  0  0  0  0  0  0  0  0  0  0  0
   -1.7001    1.0706   -0.7740 C   0  0  0  0  0  0  0  0  0  0  0  0
    2.3269    0.8803    0.0757 C   0  0  0  0  0  0  0  0  0  0  0  0
    0.5099    0.1204   -1.4293 H   0  0  0  0  0  0  0  0  0  0  0  0
    0.7346   -2.1384    0.6050 H   0  0  0  0  0  0  0  0  0  0  0  0
    1.8088   -1.7964   -0.7410 H   0  0  0  0  0  0  0  0  0  0  0  0
    0.1617   -2.3418   -1.0689 H   0  0  0  0  0  0  0  0  0  0  0  0
   -1.1935   -1.2280    1.6283 H   0  0  0  0  0  0  0  0  0  0  0  0
   -2.6518   -0.3177    1.2848 H   0  0  0  0  0  0  0  0  0  0  0  0
   -1.1911    0.5401    1.8066 H   0  0  0  0  0  0  0  0  0  0  0  0
   -1.4998    1.1251   -1.8498 H   0  0  0  0  0  0  0  0  0  0  0  0
   -1.2688    1.9572   -0.2953 H   0  0  0  0  0  0  0  0  0  0  0  0
   -2.7892    1.1123   -0.6599 H   0  0  0  0  0  0  0  0  0  0  0  0
    2.7982    1.4914    0.8506 H   0  0  0  0  0  0  0  0  0  0  0  0
    2.2432    1.4833   -0.8335 H   0  0  0  0  0  0  0  0  0  0  0  0
    2.9621    0.0094   -0.1039 H   0  0  0  0  0  0  0  0  0  0  0  0
  1  3  1  0  0  0  0
  1  7  1  0  0  0  0
  2  3  1  0  0  0  0
  2  5  1  0  0  0  0
  2  6  1  0  0  0  0
  3  4  1  0  0  0  0
  3  8  1  0  0  0  0
  4  9  1  0  0  0  0
  4 10  1  0  0  0  0
  4 11  1  0  0  0  0
  5 12  1  0  0  0  0
  5 13  1  0  0  0  0
  5 14  1  0  0  0  0
  6 15  1  0  0  0  0
  6 16  1  0  0  0  0
  6 17  1  0  0  0  0
  7 18  1  0  0  0  0
  7 19  1  0  0  0  0
  7 20  1  0  0  0  0
M  END
> <PUBCHEM_COMPOUND_CID>
22505825

> <PUBCHEM_CONFORMER_RMSD>
0.4

> <PUBCHEM_CONFORMER_DIVERSEORDER>
1
8
6
10
12
3
4
11
7
9
5
2

> <PUBCHEM_MMFF94_PARTIAL_CHARGES>
6
1 -0.56
2 -0.81
3 0.55
5 0.27
6 0.27
7 0.28

> <PUBCHEM_EFFECTIVE_ROTOR_COUNT>
2

> <PUBCHEM_PHARMACOPHORE_FEATURES>
2
1 1 acceptor
1 2 cation

> <PUBCHEM_HEAVY_ATOM_COUNT>
7

> <PUBCHEM_ATOM_DEF_STEREO_COUNT>
0

> <PUBCHEM_ATOM_UDEF_STEREO_COUNT>
1

> <PUBCHEM_BOND_DEF_STEREO_COUNT>
0

> <PUBCHEM_BOND_UDEF_STEREO_COUNT>
0

> <PUBCHEM_ISOTOPIC_ATOM_COUNT>
0

> <PUBCHEM_COMPONENT_COUNT>
1

> <PUBCHEM_CACTVS_TAUTO_COUNT>
1

> <PUBCHEM_CONFORMER_ID>
0157696100000001

> <PUBCHEM_MMFF94_ENERGY>
16.3189

> <PUBCHEM_FEATURE_SELFOVERLAP>
10.148

> <PUBCHEM_SHAPE_FINGERPRINT>
137420 1 15519035734895145174
16714656 1 18193280921196084796
20096714 4 17560810943330915512
21040471 1 18342164618276734404
24536 1 17603878770962632367
29004967 10 18053390894160110930
5084963 1 18058444468744564556
5943 1 10795445494595260783

> <PUBCHEM_SHAPE_MULTIPOLES>
133.21
2.64
1.4
0.99
0.54
0.41
-0.16
-0.97
-0.23
0.37
0.27
-0.41
0.02
0.5

> <PUBCHEM_SHAPE_SELFOVERLAP>
231.838

> <PUBCHEM_SHAPE_VOLUME>
90.3

> <PUBCHEM_COORDINATE_TYPE>
2
5
10

$$$$
46780861
  -OEChem-01162405103D

 80 84  0     0  0  0  0  0  0999 V2000
    9.2014    0.1829   -0.5554 O   0  0  0  0  0  0  0  0  0  0  0  0
    8.0168   -1.3438   -1.7773 O   0  0  0  0  0  0  0  0  0  0  0  0
   -2.5777    0.1253    1.2618 O   0  0  0  0  0  0  0  0  0  0  0  0
    4.6477    0.6355    1.3196 N   0  0  0  0  0  0  0  0  0  0  0  0
    6.9085    0.1213   -0.3543 N   0  0  0  0  0  0  0  0  0  0  0  0
   -2.0873    2.1867    0.2538 N   0  0  0  0  0  0  0  0  0  0  0  0
   -6.8275    1.3518   -0.3931 N   0  0  0  0  0  0  0  0  0  0  0  0
   -5.8406   -0.7719   -0.3389 N   0  0  0  0  0  0  0  0  0  0  0  0
   -8.2230   -0.5049   -0.0923 N   0  0  0  0  0  0  0  0  0  0  0  0
   -3.5889   -4.8728    0.3693 N   0  0  0  0  0  0  0  0  0  0  0  0
    4.6657   -0.5378    0.4330 C   0  0  0  0  0  0  0  0  0  0  0  0
    6.0058    0.9448    1.7916 C   0  0  0  0  0  0  0  0  0  0  0  0
    5.5719   -0.2921   -0.7728 C   0  0  0  0  0  0  0  0  0  0  0  0
    6.9447    1.2178    0.6157 C   0  0  0  0  0  0  0  0  0  0  0  0
    3.7499    0.4097    2.4518 C   0  0  0  0  0  0  0  0  0  0  0  0
    8.0424   -0.4231   -0.9624 C   0  0  0  0  0  0  0  0  0  0  0  0
    2.3045    0.5697    2.0617 C   0  0  0  0  0  0  0  0  0  0  0  0
   10.4121   -0.3160   -1.1358 C   0  0  0  0  0  0  0  0  0  0  0  0
    1.5032   -0.5573    1.8787 C   0  0  0  0  0  0  0  0  0  0  0  0
    1.7669    1.8443    1.8831 C   0  0  0  0  0  0  0  0  0  0  0  0
   10.3350   -0.1361   -2.6512 C   0  0  0  0  0  0  0  0  0  0  0  0
   11.5687    0.4958   -0.5564 C   0  0  0  0  0  0  0  0  0  0  0  0
   10.5550   -1.7924   -0.7689 C   0  0  0  0  0  0  0  0  0  0  0  0
    0.1642   -0.4096    1.5173 C   0  0  0  0  0  0  0  0  0  0  0  0
    0.4278    1.9920    1.5216 C   0  0  0  0  0  0  0  0  0  0  0  0
   -0.3736    0.8650    1.3388 C   0  0  0  0  0  0  0  0  0  0  0  0
   -1.7699    1.0196    0.9628 C   0  0  0  0  0  0  0  0  0  0  0  0
   -3.3436    2.5928   -0.2591 C   0  0  0  0  0  0  0  0  0  0  0  0
   -4.4654    1.7834   -0.0792 C   0  0  0  0  0  0  0  0  0  0  0  0
   -5.7023    2.1836   -0.5845 C   0  0  0  0  0  0  0  0  0  0  0  0
   -3.4588    3.8023   -0.9443 C   0  0  0  0  0  0  0  0  0  0  0  0
   -5.8176    3.3931   -1.2698 C   0  0  0  0  0  0  0  0  0  0  0  0
   -4.6957    4.2024   -1.4496 C   0  0  0  0  0  0  0  0  0  0  0  0
   -7.1299    3.8465   -1.8216 C   0  0  0  0  0  0  0  0  0  0  0  0
   -6.9707   -0.0425   -0.2698 C   0  0  0  0  0  0  0  0  0  0  0  0
   -6.0143   -2.1039   -0.2134 C   0  0  0  0  0  0  0  0  0  0  0  0
   -4.8056   -2.8894   -0.2867 C   0  0  0  0  0  0  0  0  0  0  0  0
   -7.2437   -2.7027   -0.0272 C   0  0  0  0  0  0  0  0  0  0  0  0
   -8.3237   -1.8452    0.0258 C   0  0  0  0  0  0  0  0  0  0  0  0
   -3.7196   -2.4647   -1.0441 C   0  0  0  0  0  0  0  0  0  0  0  0
   -4.6909   -4.0901    0.3952 C   0  0  0  0  0  0  0  0  0  0  0  0
   -2.5683   -3.2428   -1.0956 C   0  0  0  0  0  0  0  0  0  0  0  0
   -2.5536   -4.4275   -0.3775 C   0  0  0  0  0  0  0  0  0  0  0  0
    5.0141   -1.4273    0.9749 H   0  0  0  0  0  0  0  0  0  0  0  0
    3.6641   -0.7567    0.0480 H   0  0  0  0  0  0  0  0  0  0  0  0
    5.9904    1.8364    2.4298 H   0  0  0  0  0  0  0  0  0  0  0  0
    6.4015    0.1147    2.3920 H   0  0  0  0  0  0  0  0  0  0  0  0
    5.1672    0.5110   -1.4009 H   0  0  0  0  0  0  0  0  0  0  0  0
    5.6247   -1.1946   -1.3905 H   0  0  0  0  0  0  0  0  0  0  0  0
    7.9597    1.3804    0.9896 H   0  0  0  0  0  0  0  0  0  0  0  0
    6.6409    2.1275    0.0836 H   0  0  0  0  0  0  0  0  0  0  0  0
    3.9417    1.1481    3.2433 H   0  0  0  0  0  0  0  0  0  0  0  0
    3.9254   -0.5670    2.9232 H   0  0  0  0  0  0  0  0  0  0  0  0
    1.9098   -1.5561    2.0132 H   0  0  0  0  0  0  0  0  0  0  0  0
    2.3795    2.7298    2.0312 H   0  0  0  0  0  0  0  0  0  0  0  0
   11.3329   -0.2256   -3.0972 H   0  0  0  0  0  0  0  0  0  0  0  0
    9.9406    0.8535   -2.9098 H   0  0  0  0  0  0  0  0  0  0  0  0
    9.7179   -0.8753   -3.1680 H   0  0  0  0  0  0  0  0  0  0  0  0
   12.5355    0.1706   -0.9542 H   0  0  0  0  0  0  0  0  0  0  0  0
   11.4435    1.5620   -0.7776 H   0  0  0  0  0  0  0  0  0  0  0  0
   11.5958    0.4076    0.5358 H   0  0  0  0  0  0  0  0  0  0  0  0
   11.5816   -2.1332   -0.9497 H   0  0  0  0  0  0  0  0  0  0  0  0
    9.9162   -2.4692   -1.3416 H   0  0  0  0  0  0  0  0  0  0  0  0
   10.3295   -1.9561    0.2913 H   0  0  0  0  0  0  0  0  0  0  0  0
   -0.4409   -1.3013    1.3744 H   0  0  0  0  0  0  0  0  0  0  0  0
    0.0464    3.0048    1.4340 H   0  0  0  0  0  0  0  0  0  0  0  0
   -1.3353    2.8295    0.0219 H   0  0  0  0  0  0  0  0  0  0  0  0
   -4.4210    0.8809    0.5057 H   0  0  0  0  0  0  0  0  0  0  0  0
   -2.5929    4.4427   -1.0912 H   0  0  0  0  0  0  0  0  0  0  0  0
   -4.7679    5.1482   -1.9802 H   0  0  0  0  0  0  0  0  0  0  0  0
   -7.7233    1.8265   -0.4342 H   0  0  0  0  0  0  0  0  0  0  0  0
   -7.0262    4.7615   -2.4153 H   0  0  0  0  0  0  0  0  0  0  0  0
   -7.8327    4.0607   -1.0098 H   0  0  0  0  0  0  0  0  0  0  0  0
   -7.5567    3.0844   -2.4823 H   0  0  0  0  0  0  0  0  0  0  0  0
   -7.3967   -3.7712    0.0540 H   0  0  0  0  0  0  0  0  0  0  0  0
   -9.3309   -2.2237    0.1638 H   0  0  0  0  0  0  0  0  0  0  0  0
   -3.7427   -1.5372   -1.6106 H   0  0  0  0  0  0  0  0  0  0  0  0
   -5.4798   -4.4852    1.0276 H   0  0  0  0  0  0  0  0  0  0  0  0
   -1.7098   -2.9320   -1.6798 H   0  0  0  0  0  0  0  0  0  0  0  0
   -1.6795   -5.0702   -0.3845 H   0  0  0  0  0  0  0  0  0  0  0  0
  1 16  1  0  0  0  0
  1 18  1  0  0  0  0
  2 16  2  0  0  0  0
  3 27  2  0  0  0  0
  4 11  1  0  0  0  0
  4 12  1  0  0  0  0
  4 15  1  0  0  0  0
  5 13  1  0  0  0  0
  5 14  1  0  0  0  0
  5 16  1  0  0  0  0
  6 27  1  0  0  0  0
  6 28  1  0  0  0  0
  6 67  1  0  0  0  0
  7 30  1  0  0  0  0
  7 35  1  0  0  0  0
  7 71  1  0  0  0  0
  8 35  1  0  0  0  0
  8 36  2  0  0  0  0
  9 35  2  0  0  0  0
  9 39  1  0  0  0  0
 10 41  1  0  0  0  0
 10 43  2  0  0  0  0
 11 13  1  0  0  0  0
 11 44  1  0  0  0  0
 11 45  1  0  0  0  0
 12 14  1  0  0  0  0
 12 46  1  0  0  0  0
 12 47  1  0  0  0  0
 13 48  1  0  0  0  0
 13 49  1  0  0  0  0
 14 50  1  0  0  0  0
 14 51  1  0  0  0  0
 15 17  1  0  0  0  0
 15 52  1  0  0  0  0
 15 53  1  0  0  0  0
 17 19  2  0  0  0  0
 17 20  1  0  0  0  0
 18 21  1  0  0  0  0
 18 22  1  0  0  0  0
 18 23  1  0  0  0  0
 19 24  1  0  0  0  0
 19 54  1  0  0  0  0
 20 25  2  0  0  0  0
 20 55  1  0  0  0  0
 21 56  1  0  0  0  0
 21 57  1  0  0  0  0
 21 58  1  0  0  0  0
 22 59  1  0  0  0  0
 22 60  1  0  0  0  0
 22 61  1  0  0  0  0
 23 62  1  0  0  0  0
 23 63  1  0  0  0  0
 23 64  1  0  0  0  0
 24 26  2  0  0  0  0
 24 65  1  0  0  0  0
 25 26  1  0  0  0  0
 25 66  1  0  0  0  0
 26 27  1  0  0  0  0
 28 29  2  0  0  0  0
 28 31  1  0  0  0  0
 29 30  1  0  0  0  0
 29 68  1  0  0  0  0
 30 32  2  0  0  0  0
 31 33  2  0  0  0  0
 31 69  1  0  0  0  0
 32 33  1  0  0  0  0
 32 34  1  0  0  0  0
 33 70  1  0  0  0  0
 34 72  1  0  0  0  0
 34 73  1  0  0  0  0
 34 74  1  0  0  0  0
 36 37  1  0  0  0  0
 36 38  1  0  0  0  0
 37 40  1  0  0  0  0
 37 41  2  0  0  0  0
 38 39  2  0  0  0  0
 38 75  1  0  0  0  0
 39 76  1  0  0  0  0
 40 42  2  0  0  0  0
 40 77  1  0  0  0  0
 41 78  1  0  0  0  0
 42 43  1  0  0  0  0
 42 79  1  0  0  0  0
 43 80  1  0  0  0  0
M  END
> <PUBCHEM_COMPOUND_CID>
46780861

> <PUBCHEM_CONFORMER_RMSD>
1.4

> <PUBCHEM_CONFORMER_DIVERSEORDER>
12
40
30
49
14
139
120
117
44
121
100
38
123
90
105
97
135
70
134
107
39
20
133
98
92
54
23
122
58
102
96
129
75
56
33
74
124
17
4
66
29
35
83
130
81
95
111
82
101
43
45
77
104
52
72
94
99
132
21
115
91
62
112
65
24
114
36
78
46
128
84
136
18
71
50
87
55
48
131
37
127
137
103
73
15
57
138
41
10
113
140
53
25
19
64
126
76
63
85
34
59
118
9
3
68
93
79
125
28
88
32
109
22
89
2
106
60
86
110
61
11
80
16
6
42
26
1
13
31
7
108
116
47
5
27
8
67
69
119
51

> <PUBCHEM_MMFF94_PARTIAL_CHARGES>
54
1 -0.43
10 -0.62
11 0.27
12 0.27
13 0.3
14 0.3
15 0.41
16 0.78
17 -0.14
18 0.28
19 -0.15
2 -0.57
20 -0.15
24 -0.15
25 -0.15
26 0.09
27 0.54
28 0.12
29 -0.15
3 -0.57
30 0.1
31 -0.15
32 -0.14
33 -0.15
34 0.14
35 0.72
36 0.31
38 -0.15
39 0.16
4 -0.81
40 -0.15
41 0.16
42 -0.15
43 0.16
5 -0.66
54 0.15
55 0.15
6 -0.55
65 0.15
66 0.15
67 0.37
68 0.15
69 0.15
7 -0.6
70 0.15
71 0.4
75 0.15
76 0.15
77 0.15
78 0.15
79 0.15
8 -0.62
80 0.15
9 -0.62

> <PUBCHEM_EFFECTIVE_ROTOR_COUNT>
12.2

> <PUBCHEM_PHARMACOPHORE_FEATURES>
14
1 10 acceptor
1 2 acceptor
1 3 acceptor
1 4 cation
1 6 donor
1 7 donor
1 8 acceptor
4 18 21 22 23 hydrophobe
4 7 8 9 35 cation
6 10 37 40 41 42 43 rings
6 17 19 20 24 25 26 rings
6 28 29 30 31 32 33 rings
6 4 5 11 12 13 14 rings
6 8 9 35 36 38 39 rings

> <PUBCHEM_HEAVY_ATOM_COUNT>
43

> <PUBCHEM_ATOM_DEF_STEREO_COUNT>
0

> <PUBCHEM_ATOM_UDEF_STEREO_COUNT>
0

> <PUBCHEM_BOND_DEF_STEREO_COUNT>
0

> <PUBCHEM_BOND_UDEF_STEREO_COUNT>
0

> <PUBCHEM_ISOTOPIC_ATOM_COUNT>
0

> <PUBCHEM_COMPONENT_COUNT>
1

> <PUBCHEM_CACTVS_TAUTO_COUNT>
6

> <PUBCHEM_CONFORMER_ID>
02C9D1BD0000000C

> <PUBCHEM_MMFF94_ENERGY>
142.928

> <PUBCHEM_FEATURE_SELFOVERLAP>
71.048

> <PUBCHEM_SHAPE_FINGERPRINT>
10054150 59 17396713450620374387
10677351 14 18411144675902374144
11410812 94 18334015004480941658
12047536 79 11170177749651606064
131240 100 18272931657781196536
13690498 29 18410571820572414849
13947934 56 18341613686718545422
14117953 113 18337372939162874415
14279260 333 16702029651874648171
14856354 85 18262232339790026963
150020 25 18273210890051631968
15064986 266 17417817223246842208
15328829 1 17676766552309187511
15461852 350 18335140878096221676
15510800 12 17131563773639099724
17852330 162 18341617083910913508
20105231 36 18060419140405064167
20609170 92 18342743961809725534
21133410 127 17753883914697611933
21867018 265 18410013234596091996
21895439 516 18202285831982388708
23569943 247 15194998306491106356
23576562 1 18261110815780028844
25269216 80 18333449854454589217
439807 62 17988649631910653026
44880168 125 17702375333851954127
45377200 153 18411982477301657690
5265222 85 18337380545107363273

> <PUBCHEM_SHAPE_MULTIPOLES>
832.44
36.21
5.33
1.97
98.29
2.06
-0.35
5.33
21.66
-17.41
2.11
3.58
-0.85
4.18

> <PUBCHEM_SHAPE_SELFOVERLAP>
1796.983

> <PUBCHEM_SHAPE_VOLUME>
454.6

> <PUBCHEM_COORDINATE_TYPE>
2
5
10

$$$$
10239086
  -OEChem-01162405103D

 68 72  0     0  0  0  0  0  0999 V2000
    0.6116    1.5411   -1.4290 O   0  0  0  0  0  0  0  0  0  0  0  0
    7.7260    0.4119   -0.2738 N   0  0  0  0  0  0  0  0  0  0  0  0
    9.4598   -0.3887    1.8968 N   0  0  0  0  0  0  0  0  0  0  0  0
    0.9137   -0.6496   -0.6450 N   0  0  0  0  0  0  0  0  0  0  0  0
   -4.3353   -2.5634   -0.3104 N   0  0  0  0  0  0  0  0  0  0  0  0
   -5.5122   -0.5850    0.1445 N   0  0  0  0  0  0  0  0  0  0  0  0
   -6.6647   -2.6916   -0.0579 N   0  0  0  0  0  0  0  0  0  0  0  0
   -7.7314    3.5846    0.4288 N   0  0  0  0  0  0  0  0  0  0  0  0
    7.2777    0.4745    1.1226 C   0  0  0  0  0  0  0  0  0  0  0  0
    9.1805    0.5944   -0.3533 C   0  0  0  0  0  0  0  0  0  0  0  0
    8.0051   -0.5702    1.9760 C   0  0  0  0  0  0  0  0  0  0  0  0
    9.9088   -0.4493    0.5005 C   0  0  0  0  0  0  0  0  0  0  0  0
    7.0326    1.4090   -1.0869 C   0  0  0  0  0  0  0  0  0  0  0  0
   10.1524   -1.3873    2.7087 C   0  0  0  0  0  0  0  0  0  0  0  0
    5.5416    1.2004   -1.0793 C   0  0  0  0  0  0  0  0  0  0  0  0
    5.0292   -0.0786   -1.2453 C   0  0  0  0  0  0  0  0  0  0  0  0
    4.7004    2.2909   -0.9072 C   0  0  0  0  0  0  0  0  0  0  0  0
    3.6476   -0.2712   -1.2392 C   0  0  0  0  0  0  0  0  0  0  0  0
    3.3188    2.0984   -0.9010 C   0  0  0  0  0  0  0  0  0  0  0  0
    2.7925    0.8174   -1.0671 C   0  0  0  0  0  0  0  0  0  0  0  0
    1.3522    0.6159   -1.0589 C   0  0  0  0  0  0  0  0  0  0  0  0
   -0.4130   -1.1385   -0.5587 C   0  0  0  0  0  0  0  0  0  0  0  0
   -1.9359   -2.9147   -0.0354 C   0  0  0  0  0  0  0  0  0  0  0  0
   -0.6294   -2.4337   -0.1203 C   0  0  0  0  0  0  0  0  0  0  0  0
   -3.0060   -2.0934   -0.3901 C   0  0  0  0  0  0  0  0  0  0  0  0
   -1.4630   -0.3098   -0.9148 C   0  0  0  0  0  0  0  0  0  0  0  0
   -2.7695   -0.7909   -0.8299 C   0  0  0  0  0  0  0  0  0  0  0  0
   -2.1604   -4.3140    0.4383 C   0  0  0  0  0  0  0  0  0  0  0  0
   -5.5605   -1.9169   -0.0634 C   0  0  0  0  0  0  0  0  0  0  0  0
   -6.7041    0.0023    0.3785 C   0  0  0  0  0  0  0  0  0  0  0  0
   -6.6521    1.4275    0.5998 C   0  0  0  0  0  0  0  0  0  0  0  0
   -7.9026   -0.6811    0.4092 C   0  0  0  0  0  0  0  0  0  0  0  0
   -7.8213   -2.0397    0.1822 C   0  0  0  0  0  0  0  0  0  0  0  0
   -5.5339    2.0248    1.1718 C   0  0  0  0  0  0  0  0  0  0  0  0
   -7.7150    2.2448    0.2492 C   0  0  0  0  0  0  0  0  0  0  0  0
   -5.5133    3.4005    1.3727 C   0  0  0  0  0  0  0  0  0  0  0  0
   -6.6271    4.1290    0.9874 C   0  0  0  0  0  0  0  0  0  0  0  0
    7.4531    1.4746    1.5429 H   0  0  0  0  0  0  0  0  0  0  0  0
    6.2071    0.2683    1.2239 H   0  0  0  0  0  0  0  0  0  0  0  0
    9.4681    1.6031   -0.0268 H   0  0  0  0  0  0  0  0  0  0  0  0
    9.5121    0.4809   -1.3926 H   0  0  0  0  0  0  0  0  0  0  0  0
    7.6752   -0.4567    3.0159 H   0  0  0  0  0  0  0  0  0  0  0  0
    7.7172   -1.5789    1.6498 H   0  0  0  0  0  0  0  0  0  0  0  0
    9.7439   -1.4504    0.0792 H   0  0  0  0  0  0  0  0  0  0  0  0
   10.9855   -0.2467    0.4484 H   0  0  0  0  0  0  0  0  0  0  0  0
    7.2781    2.4226   -0.7420 H   0  0  0  0  0  0  0  0  0  0  0  0
    7.3650    1.3389   -2.1309 H   0  0  0  0  0  0  0  0  0  0  0  0
   11.2349   -1.2200    2.6827 H   0  0  0  0  0  0  0  0  0  0  0  0
    9.9531   -2.4098    2.3682 H   0  0  0  0  0  0  0  0  0  0  0  0
    9.8475   -1.3080    3.7580 H   0  0  0  0  0  0  0  0  0  0  0  0
    5.6772   -0.9362   -1.4032 H   0  0  0  0  0  0  0  0  0  0  0  0
    5.0980    3.2933   -0.7768 H   0  0  0  0  0  0  0  0  0  0  0  0
    3.2849   -1.2798   -1.4135 H   0  0  0  0  0  0  0  0  0  0  0  0
    2.6704    2.9593   -0.7601 H   0  0  0  0  0  0  0  0  0  0  0  0
    1.6100   -1.3164   -0.3231 H   0  0  0  0  0  0  0  0  0  0  0  0
    0.2090   -3.0693    0.1536 H   0  0  0  0  0  0  0  0  0  0  0  0
   -1.3617    0.7032   -1.2743 H   0  0  0  0  0  0  0  0  0  0  0  0
   -3.5656   -0.1328   -1.1619 H   0  0  0  0  0  0  0  0  0  0  0  0
   -1.2288   -4.7844    0.7718 H   0  0  0  0  0  0  0  0  0  0  0  0
   -2.5675   -4.9305   -0.3699 H   0  0  0  0  0  0  0  0  0  0  0  0
   -2.8479   -4.3291    1.2907 H   0  0  0  0  0  0  0  0  0  0  0  0
   -4.4366   -3.5721   -0.3536 H   0  0  0  0  0  0  0  0  0  0  0  0
   -8.8615   -0.2235    0.6160 H   0  0  0  0  0  0  0  0  0  0  0  0
   -8.7100   -2.6617    0.1922 H   0  0  0  0  0  0  0  0  0  0  0  0
   -4.6680    1.4441    1.4795 H   0  0  0  0  0  0  0  0  0  0  0  0
   -8.6166    1.8668   -0.2231 H   0  0  0  0  0  0  0  0  0  0  0  0
   -4.6535    3.8872    1.8187 H   0  0  0  0  0  0  0  0  0  0  0  0
   -6.6611    5.2049    1.1233 H   0  0  0  0  0  0  0  0  0  0  0  0
  1 21  2  0  0  0  0
  2  9  1  0  0  0  0
  2 10  1  0  0  0  0
  2 13  1  0  0  0  0
  3 11  1  0  0  0  0
  3 12  1  0  0  0  0
  3 14  1  0  0  0  0
  4 21  1  0  0  0  0
  4 22  1  0  0  0  0
  4 55  1  0  0  0  0
  5 25  1  0  0  0  0
  5 29  1  0  0  0  0
  5 62  1  0  0  0  0
  6 29  1  0  0  0  0
  6 30  2  0  0  0  0
  7 29  2  0  0  0  0
  7 33  1  0  0  0  0
  8 35  1  0  0  0  0
  8 37  2  0  0  0  0
  9 11  1  0  0  0  0
  9 38  1  0  0  0  0
  9 39  1  0  0  0  0
 10 12  1  0  0  0  0
 10 40  1  0  0  0  0
 10 41  1  0  0  0  0
 11 42  1  0  0  0  0
 11 43  1  0  0  0  0
 12 44  1  0  0  0  0
 12 45  1  0  0  0  0
 13 15  1  0  0  0  0
 13 46  1  0  0  0  0
 13 47  1  0  0  0  0
 14 48  1  0  0  0  0
 14 49  1  0  0  0  0
 14 50  1  0  0  0  0
 15 16  2  0  0  0  0
 15 17  1  0  0  0  0
 16 18  1  0  0  0  0
 16 51  1  0  0  0  0
 17 19  2  0  0  0  0
 17 52  1  0  0  0  0
 18 20  2  0  0  0  0
 18 53  1  0  0  0  0
 19 20  1  0  0  0  0
 19 54  1  0  0  0  0
 20 21  1  0  0  0  0
 22 24  2  0  0  0  0
 22 26  1  0  0  0  0
 23 24  1  0  0  0  0
 23 25  2  0  0  0  0
 23 28  1  0  0  0  0
 24 56  1  0  0  0  0
 25 27  1  0  0  0  0
 26 27  2  0  0  0  0
 26 57  1  0  0  0  0
 27 58  1  0  0  0  0
 28 59  1  0  0  0  0
 28 60  1  0  0  0  0
 28 61  1  0  0  0  0
 30 31  1  0  0  0  0
 30 32  1  0  0  0  0
 31 34  1  0  0  0  0
 31 35  2  0  0  0  0
 32 33  2  0  0  0  0
 32 63  1  0  0  0  0
 33 64  1  0  0  0  0
 34 36  2  0  0  0  0
 34 65  1  0  0  0  0
 35 66  1  0  0  0  0
 36 37  1  0  0  0  0
 36 67  1  0  0  0  0
 37 68  1  0  0  0  0
M  END
> <PUBCHEM_COMPOUND_CID>
10239086

> <PUBCHEM_CONFORMER_RMSD>
1

> <PUBCHEM_CONFORMER_DIVERSEORDER>
1
176
78
167
177
45
18
65
55
8
53
179
98
111
162
13
119
44
117
83
136
16
146
51
120
138
85
151
110
102
149
9
108
71
170
80
113
129
35
180
77
174
155
10
163
109
144
86
172
75
147
36
84
123
31
91
90
134
131
66
37
99
38
139
61
56
181
33
67
121
127
70
143
23
116
115
74
137
25
126
148
29
157
47
103
160
112
87
43
122
101
22
168
52
96
171
58
153
158
135
54
69
175
161
11
5
64
42
100
12
2
60
142
95
89
165
118
20
76
19
145
124
173
50
14
150
128
73
166
92
82
49
169
72
40
132
63
21
106
46
154
68
159
79
88
133
15
94
164
93
178
156
27
17
141
81
59
57
104
6
97
107
62
105
7
30
39
114
24
3
125
152
140
41
130
32
4
28
34
48
26

> <PUBCHEM_MMFF94_PARTIAL_CHARGES>
51
1 -0.57
10 0.27
11 0.27
12 0.27
13 0.41
14 0.27
15 -0.14
16 -0.15
17 -0.15
18 -0.15
19 -0.15
2 -0.81
20 0.09
21 0.54
22 0.12
23 -0.14
24 -0.15
25 0.1
26 -0.15
27 -0.15
28 0.14
29 0.72
3 -0.81
30 0.31
32 -0.15
33 0.16
34 -0.15
35 0.16
36 -0.15
37 0.16
4 -0.55
5 -0.6
51 0.15
52 0.15
53 0.15
54 0.15
55 0.37
56 0.15
57 0.15
58 0.15
6 -0.62
62 0.4
63 0.15
64 0.15
65 0.15
66 0.15
67 0.15
68 0.15
7 -0.62
8 -0.62
9 0.27

> <PUBCHEM_EFFECTIVE_ROTOR_COUNT>
9.2

> <PUBCHEM_PHARMACOPHORE_FEATURES>
13
1 1 acceptor
1 2 cation
1 3 cation
1 4 donor
1 5 donor
1 6 acceptor
1 8 acceptor
4 5 6 7 29 cation
6 15 16 17 18 19 20 rings
6 2 3 9 10 11 12 rings
6 22 23 24 25 26 27 rings
6 6 7 29 30 32 33 rings
6 8 31 34 35 36 37 rings

> <PUBCHEM_HEAVY_ATOM_COUNT>
37

> <PUBCHEM_ATOM_DEF_STEREO_COUNT>
0

> <PUBCHEM_ATOM_UDEF_STEREO_COUNT>
0

> <PUBCHEM_BOND_DEF_STEREO_COUNT>
0

> <PUBCHEM_BOND_UDEF_STEREO_COUNT>
0

> <PUBCHEM_ISOTOPIC_ATOM_COUNT>
0

> <PUBCHEM_COMPONENT_COUNT>
1

> <PUBCHEM_CACTVS_TAUTO_COUNT>
6

> <PUBCHEM_CONFORMER_ID>
009C3C6E00000001

> <PUBCHEM_MMFF94_ENERGY>
127.9224

> <PUBCHEM_FEATURE_SELFOVERLAP>
65.975

> <PUBCHEM_SHAPE_FINGERPRINT>
10075450 59 18193550074720102890
100830 39 18341621430048526109
10533779 1 18197499529235030233
10580692 12 18341338854800363790
10625338 131 18343586235119523336
10670039 82 18341333366776216201
10917259 128 18201155447185729944
10951579 204 18126032436199534013
11103572 95 18271807879118998366
11136131 41 18190183378288204747
11181472 205 18261684735823060540
11456790 92 18334860541222313936
11477941 20 14405193837863536027
11973863 73 18040149596291635680
12107183 9 18261113014891961396
12133447 93 18269292217698528348
12144603 126 18115030814216756204
12559415 193 18187921717229212014
12717326 25 16443068317723965651
13008946 267 18265333906529071203
13165054 54 17969215651914536840
13383668 254 16844710033290581536
15289351 153 18412542111171061079
15328684 2 18187918461269650441
15419008 145 18407757023566514117
1754911 235 11024113170466657866
20105231 36 14201393898271623376
20982279 24 15430319062881679120
21756936 100 18272933822101309495
21772523 7 15338819951211730696
21781051 124 13479135692390829610
21927370 108 15140961729527817462
23522609 53 17678201453628014484
23569943 247 17168686601401753074
306946 40 16845565410181148784
397638 5 18201435861843321984
4173938 306 17203612597006111054
439807 62 17603579760668595686
44802255 64 17203611485026183503
5047190 69 18202284706137091673
6058803 2 17754750638648850316
6201320 215 18131071502853900897
636783 164 18268974433311429680
6636735 143 17559942381555687090
99344 41 18411423882070553895

> <PUBCHEM_SHAPE_MULTIPOLES>
720.71
35.73
4.24
1.57
49.68
0.45
0.76
8.64
18.41
-12.2
1.01
4.36
0.22
-4.92

> <PUBCHEM_SHAPE_SELFOVERLAP>
1568.243

> <PUBCHEM_SHAPE_VOLUME>
390.1

> <PUBCHEM_COORDINATE_TYPE>
2
5
10

$$$$
69716662
  -OEChem-01162405103D

 68 72  0     0  0  0  0  0  0999 V2000
   -0.0423   -4.8113   -0.6370 O   0  0  0  0  0  0  0  0  0  0  0  0
    4.0000    0.1988    1.0127 N   0  0  0  0  0  0  0  0  0  0  0  0
    4.8177    2.9114    0.4360 N   0  0  0  0  0  0  0  0  0  0  0  0
   -0.4601   -2.5981    0.0214 N   0  0  0  0  0  0  0  0  0  0  0  0
   -4.5460   -0.0781    0.7568 N   0  0  0  0  0  0  0  0  0  0  0  0
   -2.9789    1.5078    0.0383 N   0  0  0  0  0  0  0  0  0  0  0  0
   -5.0399    2.1876    1.0859 N   0  0  0  0  0  0  0  0  0  0  0  0
    0.5684    4.4902   -0.9168 N   0  0  0  0  0  0  0  0  0  0  0  0
    4.0920    1.2090    2.0740 C   0  0  0  0  0  0  0  0  0  0  0  0
    4.9574    0.4947   -0.0600 C   0  0  0  0  0  0  0  0  0  0  0  0
    3.8617    2.6154    1.5102 C   0  0  0  0  0  0  0  0  0  0  0  0
    4.7263    1.9006   -0.6246 C   0  0  0  0  0  0  0  0  0  0  0  0
    4.2216   -1.1416    1.5514 C   0  0  0  0  0  0  0  0  0  0  0  0
    4.5941    4.2513   -0.1031 C   0  0  0  0  0  0  0  0  0  0  0  0
    3.6744   -2.2089    0.6414 C   0  0  0  0  0  0  0  0  0  0  0  0
    2.3011   -2.4488    0.5938 C   0  0  0  0  0  0  0  0  0  0  0  0
    4.5411   -2.9575   -0.1552 C   0  0  0  0  0  0  0  0  0  0  0  0
    1.7945   -3.4372   -0.2502 C   0  0  0  0  0  0  0  0  0  0  0  0
    4.0345   -3.9457   -0.9994 C   0  0  0  0  0  0  0  0  0  0  0  0
    2.6611   -4.1856   -1.0468 C   0  0  0  0  0  0  0  0  0  0  0  0
    0.3627   -3.6868   -0.3003 C   0  0  0  0  0  0  0  0  0  0  0  0
   -1.8753   -2.5360    0.0349 C   0  0  0  0  0  0  0  0  0  0  0  0
   -2.5183   -1.3489    0.3857 C   0  0  0  0  0  0  0  0  0  0  0  0
   -3.9119   -1.2878    0.3980 C   0  0  0  0  0  0  0  0  0  0  0  0
   -4.6623   -2.4140    0.0596 C   0  0  0  0  0  0  0  0  0  0  0  0
   -2.6257   -3.6622   -0.3034 C   0  0  0  0  0  0  0  0  0  0  0  0
   -4.0192   -3.6012   -0.2908 C   0  0  0  0  0  0  0  0  0  0  0  0
   -6.1560   -2.3771    0.0642 C   0  0  0  0  0  0  0  0  0  0  0  0
   -4.1695    1.2710    0.6213 C   0  0  0  0  0  0  0  0  0  0  0  0
   -2.6516    2.8115   -0.0786 C   0  0  0  0  0  0  0  0  0  0  0  0
   -1.3762    3.0696   -0.7030 C   0  0  0  0  0  0  0  0  0  0  0  0
   -3.4550    3.8457    0.3565 C   0  0  0  0  0  0  0  0  0  0  0  0
   -4.6496    3.4704    0.9366 C   0  0  0  0  0  0  0  0  0  0  0  0
   -0.8563    2.2018   -1.6569 C   0  0  0  0  0  0  0  0  0  0  0  0
   -0.6313    4.1898   -0.3708 C   0  0  0  0  0  0  0  0  0  0  0  0
    0.3752    2.4768   -2.2412 C   0  0  0  0  0  0  0  0  0  0  0  0
    1.0416    3.6235   -1.8403 C   0  0  0  0  0  0  0  0  0  0  0  0
    5.0700    1.1646    2.5722 H   0  0  0  0  0  0  0  0  0  0  0  0
    3.3271    1.0187    2.8368 H   0  0  0  0  0  0  0  0  0  0  0  0
    4.8413   -0.2111   -0.8898 H   0  0  0  0  0  0  0  0  0  0  0  0
    5.9918    0.4098    0.3002 H   0  0  0  0  0  0  0  0  0  0  0  0
    3.9849    3.3385    2.3255 H   0  0  0  0  0  0  0  0  0  0  0  0
    2.8277    2.7030    1.1493 H   0  0  0  0  0  0  0  0  0  0  0  0
    3.7482    1.9414   -1.1223 H   0  0  0  0  0  0  0  0  0  0  0  0
    5.4891    2.0952   -1.3883 H   0  0  0  0  0  0  0  0  0  0  0  0
    3.7032   -1.2557    2.5140 H   0  0  0  0  0  0  0  0  0  0  0  0
    5.2821   -1.3208    1.7756 H   0  0  0  0  0  0  0  0  0  0  0  0
    3.5904    4.3722   -0.5195 H   0  0  0  0  0  0  0  0  0  0  0  0
    4.7318    5.0051    0.6800 H   0  0  0  0  0  0  0  0  0  0  0  0
    5.3239    4.4780   -0.8881 H   0  0  0  0  0  0  0  0  0  0  0  0
    1.6610   -1.8738    1.2571 H   0  0  0  0  0  0  0  0  0  0  0  0
    5.6130   -2.7805   -0.1287 H   0  0  0  0  0  0  0  0  0  0  0  0
    4.7093   -4.5272   -1.6207 H   0  0  0  0  0  0  0  0  0  0  0  0
    2.2876   -4.9567   -1.7156 H   0  0  0  0  0  0  0  0  0  0  0  0
   -0.0196   -1.7078    0.2349 H   0  0  0  0  0  0  0  0  0  0  0  0
   -1.9051   -0.5069    0.6907 H   0  0  0  0  0  0  0  0  0  0  0  0
   -2.2014   -4.6152   -0.5852 H   0  0  0  0  0  0  0  0  0  0  0  0
   -4.5896   -4.4876   -0.5561 H   0  0  0  0  0  0  0  0  0  0  0  0
   -5.4937   -0.1779    1.1054 H   0  0  0  0  0  0  0  0  0  0  0  0
   -6.5321   -2.2416    1.0836 H   0  0  0  0  0  0  0  0  0  0  0  0
   -6.5256   -1.5659   -0.5720 H   0  0  0  0  0  0  0  0  0  0  0  0
   -6.5862   -3.3074   -0.3229 H   0  0  0  0  0  0  0  0  0  0  0  0
   -3.2118    4.8950    0.2489 H   0  0  0  0  0  0  0  0  0  0  0  0
   -5.3494    4.2133    1.3042 H   0  0  0  0  0  0  0  0  0  0  0  0
   -1.3903    1.3088   -1.9721 H   0  0  0  0  0  0  0  0  0  0  0  0
   -0.9499    4.9068    0.3794 H   0  0  0  0  0  0  0  0  0  0  0  0
    0.7989    1.8164   -2.9890 H   0  0  0  0  0  0  0  0  0  0  0  0
    2.0009    3.8852   -2.2736 H   0  0  0  0  0  0  0  0  0  0  0  0
  1 21  2  0  0  0  0
  2  9  1  0  0  0  0
  2 10  1  0  0  0  0
  2 13  1  0  0  0  0
  3 11  1  0  0  0  0
  3 12  1  0  0  0  0
  3 14  1  0  0  0  0
  4 21  1  0  0  0  0
  4 22  1  0  0  0  0
  4 55  1  0  0  0  0
  5 24  1  0  0  0  0
  5 29  1  0  0  0  0
  5 59  1  0  0  0  0
  6 29  1  0  0  0  0
  6 30  2  0  0  0  0
  7 29  2  0  0  0  0
  7 33  1  0  0  0  0
  8 35  1  0  0  0  0
  8 37  2  0  0  0  0
  9 11  1  0  0  0  0
  9 38  1  0  0  0  0
  9 39  1  0  0  0  0
 10 12  1  0  0  0  0
 10 40  1  0  0  0  0
 10 41  1  0  0  0  0
 11 42  1  0  0  0  0
 11 43  1  0  0  0  0
 12 44  1  0  0  0  0
 12 45  1  0  0  0  0
 13 15  1  0  0  0  0
 13 46  1  0  0  0  0
 13 47  1  0  0  0  0
 14 48  1  0  0  0  0
 14 49  1  0  0  0  0
 14 50  1  0  0  0  0
 15 16  2  0  0  0  0
 15 17  1  0  0  0  0
 16 18  1  0  0  0  0
 16 51  1  0  0  0  0
 17 19  2  0  0  0  0
 17 52  1  0  0  0  0
 18 20  2  0  0  0  0
 18 21  1  0  0  0  0
 19 20  1  0  0  0  0
 19 53  1  0  0  0  0
 20 54  1  0  0  0  0
 22 23  2  0  0  0  0
 22 26  1  0  0  0  0
 23 24  1  0  0  0  0
 23 56  1  0  0  0  0
 24 25  2  0  0  0  0
 25 27  1  0  0  0  0
 25 28  1  0  0  0  0
 26 27  2  0  0  0  0
 26 57  1  0  0  0  0
 27 58  1  0  0  0  0
 28 60  1  0  0  0  0
 28 61  1  0  0  0  0
 28 62  1  0  0  0  0
 30 31  1  0  0  0  0
 30 32  1  0  0  0  0
 31 34  1  0  0  0  0
 31 35  2  0  0  0  0
 32 33  2  0  0  0  0
 32 63  1  0  0  0  0
 33 64  1  0  0  0  0
 34 36  2  0  0  0  0
 34 65  1  0  0  0  0
 35 66  1  0  0  0  0
 36 37  1  0  0  0  0
 36 67  1  0  0  0  0
 37 68  1  0  0  0  0
M  END
> <PUBCHEM_COMPOUND_CID>
69716662

> <PUBCHEM_CONFORMER_RMSD>
1.2

> <PUBCHEM_CONFORMER_DIVERSEORDER>
1
180
23
51
71
48
62
40
183
153
22
186
132
168
190
89
58
187
181
75
94
115
154
82
110
133
16
73
105
134
140
159
177
119
197
86
63
102
42
80
184
189
88
195
157
109
84
125
179
66
185
39
104
92
160
155
136
30
69
33
176
152
52
55
127
120
148
156
174
128
61
188
20
145
79
196
72
151
28
3
117
85
9
81
103
165
126
32
178
182
172
26
166
139
24
108
78
74
122
123
143
96
60
95
106
70
93
167
164
137
68
53
147
124
97
4
121
170
163
141
49
175
65
194
87
99
131
64
77
112
36
171
57
29
50
90
161
56
149
144
5
18
118
10
37
67
173
45
34
158
25
192
193
83
76
47
35
2
169
114
142
116
44
150
41
107
100
43
111
138
162
38
146
31
129
19
98
13
101
7
59
17
54
21
11
130
91
6
14
27
12
191
15
46
113
8
135

> <PUBCHEM_MMFF94_PARTIAL_CHARGES>
51
1 -0.57
10 0.27
11 0.27
12 0.27
13 0.41
14 0.27
15 -0.14
16 -0.15
17 -0.15
18 0.09
19 -0.15
2 -0.81
20 -0.15
21 0.54
22 0.12
23 -0.15
24 0.1
25 -0.14
26 -0.15
27 -0.15
28 0.14
29 0.72
3 -0.81
30 0.31
32 -0.15
33 0.16
34 -0.15
35 0.16
36 -0.15
37 0.16
4 -0.55
5 -0.6
51 0.15
52 0.15
53 0.15
54 0.15
55 0.37
56 0.15
57 0.15
58 0.15
59 0.4
6 -0.62
63 0.15
64 0.15
65 0.15
66 0.15
67 0.15
68 0.15
7 -0.62
8 -0.62
9 0.27

> <PUBCHEM_EFFECTIVE_ROTOR_COUNT>
9.2

> <PUBCHEM_PHARMACOPHORE_FEATURES>
13
1 1 acceptor
1 2 cation
1 3 cation
1 4 donor
1 5 donor
1 6 acceptor
1 8 acceptor
4 5 6 7 29 cation
6 15 16 17 18 19 20 rings
6 2 3 9 10 11 12 rings
6 22 23 24 25 26 27 rings
6 6 7 29 30 32 33 rings
6 8 31 34 35 36 37 rings

> <PUBCHEM_HEAVY_ATOM_COUNT>
37

> <PUBCHEM_ATOM_DEF_STEREO_COUNT>
0

> <PUBCHEM_ATOM_UDEF_STEREO_COUNT>
0

> <PUBCHEM_BOND_DEF_STEREO_COUNT>
0

> <PUBCHEM_BOND_UDEF_STEREO_COUNT>
0

> <PUBCHEM_ISOTOPIC_ATOM_COUNT>
0

> <PUBCHEM_COMPONENT_COUNT>
1

> <PUBCHEM_CACTVS_TAUTO_COUNT>
6

> <PUBCHEM_CONFORMER_ID>
0427CAB600000001

> <PUBCHEM_MMFF94_ENERGY>
123.6549

> <PUBCHEM_FEATURE_SELFOVERLAP>
65.975

> <PUBCHEM_SHAPE_FINGERPRINT>
11399939 17 18265065643373091860
11513181 2 18411989078386628182
13165054 235 17972860729827217228
13561361 72 18264202509205936098
1361 2 18120090834545021952
140371 6 18263926712403201347
144659 178 16970540599919204496
14725015 67 15385285741697423927
14940108 7 17844217762372760661
15320291 9 18410005529192485312
15320467 1 18123190366260851336
15351339 4 16822482576225737224
15406563 185 17770528599984397332
15419008 145 18336246995874323314
15721738 15 15881779357126920020
15961568 22 18337107959974632934
16067690 210 17968376732473121499
17627616 140 17326894483218477343
20764821 26 18335981961314567630
373842 8 18409445899655024159
474144 1 17753050789076627908
50080093 196 18115577296342509290
5047190 48 18338794619474863816
5776283 40 18193576493089216454
6176135 31 18268422451865556080
653340 110 18411979204056640224
6608658 132 17840576325627275910
9543594 6 18337397049948808998
9961470 85 18339638937221230477
9982175 49 17679312024749617660

> <PUBCHEM_SHAPE_MULTIPOLES>
720.71
12.75
8.98
1.43
1.41
0.1
0.14
-0.01
-4.13
-0.93
2.47
-1.11
1.09
0.08

> <PUBCHEM_SHAPE_SELFOVERLAP>
1565.724

> <PUBCHEM_SHAPE_VOLUME>
391

> <PUBCHEM_COORDINATE_TYPE>
2
5
10

$$$$
44828696
  -OEChem-01162405103D

 35 36  0     1  0  0  0  0  0999 V2000
   -4.6678   -0.3112    1.6233 O   0  0  0  0  0  0  0  0  0  0  0  0
   -5.0872   -1.0525   -0.4841 O   0  0  0  0  0  0  0  0  0  0  0  0
    1.9851    0.7332   -0.0279 N   0  0  1  0  0  0  0  0  0  0  0  0
    4.5610   -0.5146    0.4196 N   0  0  0  0  0  0  0  0  0  0  0  0
    3.3261   -1.3095    0.3741 C   0  0  1  0  0  0  0  0  0  0  0  0
    2.2631   -0.6285   -0.5056 C   0  0  0  0  0  0  0  0  0  0  0  0
    3.2188    1.5280    0.0088 C   0  0  0  0  0  0  0  0  0  0  0  0
    4.2749    0.8454    0.8801 C   0  0  0  0  0  0  0  0  0  0  0  0
    0.9756    1.3808   -0.8634 C   0  0  0  0  0  0  0  0  0  0  0  0
    3.6511   -2.7048   -0.1567 C   0  0  0  0  0  0  0  0  0  0  0  0
   -0.4115    0.8846   -0.5525 C   0  0  0  0  0  0  0  0  0  0  0  0
   -1.1812    0.2940   -1.5548 C   0  0  0  0  0  0  0  0  0  0  0  0
   -0.9268    1.0155    0.7370 C   0  0  0  0  0  0  0  0  0  0  0  0
   -2.4663   -0.1658   -1.2674 C   0  0  0  0  0  0  0  0  0  0  0  0
   -2.2120    0.5557    1.0243 C   0  0  0  0  0  0  0  0  0  0  0  0
   -2.9817   -0.0351    0.0223 C   0  0  0  0  0  0  0  0  0  0  0  0
   -4.3212   -0.5152    0.3227 C   0  0  0  0  0  0  0  0  0  0  0  0
    2.9381   -1.4211    1.3954 H   0  0  0  0  0  0  0  0  0  0  0  0
    1.3512   -1.2368   -0.4674 H   0  0  0  0  0  0  0  0  0  0  0  0
    2.5977   -0.6117   -1.5524 H   0  0  0  0  0  0  0  0  0  0  0  0
    3.6151    1.6817   -1.0040 H   0  0  0  0  0  0  0  0  0  0  0  0
    3.0128    2.5178    0.4340 H   0  0  0  0  0  0  0  0  0  0  0  0
    3.9490    0.8197    1.9275 H   0  0  0  0  0  0  0  0  0  0  0  0
    5.2016    1.4294    0.8555 H   0  0  0  0  0  0  0  0  0  0  0  0
    4.9617   -0.4677   -0.5177 H   0  0  0  0  0  0  0  0  0  0  0  0
    0.9588    2.4626   -0.6702 H   0  0  0  0  0  0  0  0  0  0  0  0
    1.2103    1.2749   -1.9310 H   0  0  0  0  0  0  0  0  0  0  0  0
    4.3939   -3.2019    0.4771 H   0  0  0  0  0  0  0  0  0  0  0  0
    2.7528   -3.3314   -0.1691 H   0  0  0  0  0  0  0  0  0  0  0  0
    4.0483   -2.6667   -1.1774 H   0  0  0  0  0  0  0  0  0  0  0  0
   -0.7920    0.1844   -2.5634 H   0  0  0  0  0  0  0  0  0  0  0  0
   -0.3407    1.4786    1.5266 H   0  0  0  0  0  0  0  0  0  0  0  0
   -3.0499   -0.6234   -2.0619 H   0  0  0  0  0  0  0  0  0  0  0  0
   -2.5743    0.6786    2.0411 H   0  0  0  0  0  0  0  0  0  0  0  0
   -5.5725   -0.6385    1.8155 H   0  0  0  0  0  0  0  0  0  0  0  0
  1 17  1  0  0  0  0
  1 35  1  0  0  0  0
  2 17  2  0  0  0  0
  3  6  1  0  0  0  0
  3  7  1  0  0  0  0
  3  9  1  0  0  0  0
  4  5  1  0  0  0  0
  4  8  1  0  0  0  0
  4 25  1  0  0  0  0
  5  6  1  0  0  0  0
  5 10  1  0  0  0  0
  5 18  1  0  0  0  0
  6 19  1  0  0  0  0
  6 20  1  0  0  0  0
  7  8  1  0  0  0  0
  7 21  1  0  0  0  0
  7 22  1  0  0  0  0
  8 23  1  0  0  0  0
  8 24  1  0  0  0  0
  9 11  1  0  0  0  0
  9 26  1  0  0  0  0
  9 27  1  0  0  0  0
 10 28  1  0  0  0  0
 10 29  1  0  0  0  0
 10 30  1  0  0  0  0
 11 12  2  0  0  0  0
 11 13  1  0  0  0  0
 12 14  1  0  0  0  0
 12 31  1  0  0  0  0
 13 15  2  0  0  0  0
 13 32  1  0  0  0  0
 14 16  2  0  0  0  0
 14 33  1  0  0  0  0
 15 16  1  0  0  0  0
 15 34  1  0  0  0  0
 16 17  1  0  0  0  0
M  END
> <PUBCHEM_COMPOUND_CID>
44828696

> <PUBCHEM_CONFORMER_RMSD>
0.6

> <PUBCHEM_CONFORMER_DIVERSEORDER>
2
29
27
22
21
17
28
20
7
26
19
6
23
18
13
16
14
30
5
10
1
9
11
24
25
4
15
12
8
3

> <PUBCHEM_MMFF94_PARTIAL_CHARGES>
22
1 -0.65
11 -0.14
12 -0.15
13 -0.15
14 -0.15
15 -0.15
16 0.09
17 0.63
2 -0.57
25 0.36
3 -0.81
31 0.15
32 0.15
33 0.15
34 0.15
35 0.5
4 -0.9
5 0.27
6 0.27
7 0.27
8 0.27
9 0.41

> <PUBCHEM_EFFECTIVE_ROTOR_COUNT>
4.2

> <PUBCHEM_PHARMACOPHORE_FEATURES>
8
1 1 acceptor
1 2 acceptor
1 3 cation
1 4 cation
1 4 donor
3 1 2 17 anion
6 11 12 13 14 15 16 rings
6 3 4 5 6 7 8 rings

> <PUBCHEM_HEAVY_ATOM_COUNT>
17

> <PUBCHEM_ATOM_DEF_STEREO_COUNT>
0

> <PUBCHEM_ATOM_UDEF_STEREO_COUNT>
1

> <PUBCHEM_BOND_DEF_STEREO_COUNT>
0

> <PUBCHEM_BOND_UDEF_STEREO_COUNT>
0

> <PUBCHEM_ISOTOPIC_ATOM_COUNT>
0

> <PUBCHEM_COMPONENT_COUNT>
1

> <PUBCHEM_CACTVS_TAUTO_COUNT>
1

> <PUBCHEM_CONFORMER_ID>
02AC081800000002

> <PUBCHEM_MMFF94_ENERGY>
37.0168

> <PUBCHEM_FEATURE_SELFOVERLAP>
40.654

> <PUBCHEM_SHAPE_FINGERPRINT>
10366900 7 18340777034692561544
10465860 71 15213028154266483303
114674 6 18187930534649994650
11543360 7 8286195024977144689
12107183 9 17696766458111828283
12236239 1 17917995000806604380
12251169 10 16988842799807470485
12363563 72 17313108531556614228
12596602 18 17489307528912979115
12616999 72 17894642473860949318
12633257 1 15769479963755486538
12670546 56 18273496767248397889
12892183 10 18272654545219737881
13296908 3 18041554746266254052
13533116 47 18343302565503818235
13583140 156 18130212796703997577
13675066 3 18410292506207132693
14252887 29 18334293167378594552
14341114 328 17632571691031234610
14386348 63 17675925399938471586
15142526 21 17270578503141067824
15375462 189 17917704717052325904
15635459 17 18113336384460861970
15848702 151 18187366532360175457
16752209 62 15068610583213198117
1813 80 17167870755088614477
19050596 39 17775279487022607816
19141452 34 18113620136039251667
193927 3 17749403558920803155
19862831 5 12251904793389180012
200 152 18408316700928487461
20279233 1 17312821580596821488
20374829 77 16587737659855242489
20432913 95 18408604772911531395
20645477 56 12319735882147293573
20645477 70 18260259754945179934
20671657 53 16008750220840562980
20871999 31 15719391698508630069
21065198 48 18060142015760700288
21119208 17 12251898196293084992
212847 35 12463576179721232824
212916 134 15051730867850119991
22224240 67 18340195415043643320
231179 274 11312056547896874164
23402539 116 14779534699720136807
23557571 272 17313092047329967756
23559900 14 15430320277988366156
26918003 58 18408881854089258017
3060560 45 7997976786693422032
31174 14 18410569587680297372
33824 294 18334853922862385490
4028521 119 10303814271951139611
4072396 5 17346323661778410205
42 15 18343304764442560657
4463277 69 18334295340241844846
474 4 17913481617571411912
4990 188 16660359311974638225
5352402 22 18333737913679643483
5374978 207 17489871539760063633
7808743 9 14188991458792179914
90316 7 17632582617433856449

> <PUBCHEM_SHAPE_MULTIPOLES>
328.15
10.18
1.74
1.23
2.82
0.86
-0.05
3.9
2.76
-2.35
-0.07
0.95
-0.12
0.08

> <PUBCHEM_SHAPE_SELFOVERLAP>
681.866

> <PUBCHEM_SHAPE_VOLUME>
187.1

> <PUBCHEM_COORDINATE_TYPE>
2
5
10

$$$$
65416140
  -OEChem-01162405103D

 33 34  0     1  0  0  0  0  0999 V2000
   -1.6966    0.7317   -0.0454 N   0  0  2  0  0  0  0  0  0  0  0  0
   -4.2925   -0.4429    0.4262 N   0  0  0  0  0  0  0  0  0  0  0  0
    5.6182   -0.9883    0.7062 N   0  0  0  0  0  0  0  0  0  0  0  0
   -3.0774   -1.2648    0.4393 C   0  0  2  0  0  0  0  0  0  0  0  0
   -1.9955   -0.6457   -0.4616 C   0  0  0  0  0  0  0  0  0  0  0  0
   -2.9160    1.5491   -0.0621 C   0  0  0  0  0  0  0  0  0  0  0  0
   -3.9960    0.9310    0.8278 C   0  0  0  0  0  0  0  0  0  0  0  0
   -0.6662    1.3200   -0.8992 C   0  0  0  0  0  0  0  0  0  0  0  0
   -3.4248   -2.6765   -0.0294 C   0  0  0  0  0  0  0  0  0  0  0  0
    0.7081    0.8152   -0.5482 C   0  0  0  0  0  0  0  0  0  0  0  0
    1.3615    1.3017    0.5842 C   0  0  0  0  0  0  0  0  0  0  0  0
    1.3279   -0.1388   -1.3552 C   0  0  0  0  0  0  0  0  0  0  0  0
    2.6347    0.8340    0.9094 C   0  0  0  0  0  0  0  0  0  0  0  0
    2.6011   -0.6064   -1.0300 C   0  0  0  0  0  0  0  0  0  0  0  0
    3.2546   -0.1201    0.1024 C   0  0  0  0  0  0  0  0  0  0  0  0
    4.5589   -0.5993    0.4355 C   0  0  0  0  0  0  0  0  0  0  0  0
   -2.6987   -1.3323    1.4682 H   0  0  0  0  0  0  0  0  0  0  0  0
   -2.3191   -0.6734   -1.5116 H   0  0  0  0  0  0  0  0  0  0  0  0
   -1.0995   -1.2717   -0.3808 H   0  0  0  0  0  0  0  0  0  0  0  0
   -3.2976    1.6597   -1.0863 H   0  0  0  0  0  0  0  0  0  0  0  0
   -2.6965    2.5550    0.3160 H   0  0  0  0  0  0  0  0  0  0  0  0
   -3.6839    0.9562    1.8796 H   0  0  0  0  0  0  0  0  0  0  0  0
   -4.9112    1.5282    0.7508 H   0  0  0  0  0  0  0  0  0  0  0  0
   -4.9861   -0.8415    1.0583 H   0  0  0  0  0  0  0  0  0  0  0  0
   -0.6405    2.4111   -0.7675 H   0  0  0  0  0  0  0  0  0  0  0  0
   -0.8825    1.1658   -1.9652 H   0  0  0  0  0  0  0  0  0  0  0  0
   -3.8219   -2.6756   -1.0508 H   0  0  0  0  0  0  0  0  0  0  0  0
   -4.1750   -3.1345    0.6248 H   0  0  0  0  0  0  0  0  0  0  0  0
   -2.5367   -3.3176   -0.0146 H   0  0  0  0  0  0  0  0  0  0  0  0
    0.8889    2.0450    1.2209 H   0  0  0  0  0  0  0  0  0  0  0  0
    0.8298   -0.5264   -2.2399 H   0  0  0  0  0  0  0  0  0  0  0  0
    3.1313    1.2226    1.7953 H   0  0  0  0  0  0  0  0  0  0  0  0
    3.0712   -1.3503   -1.6689 H   0  0  0  0  0  0  0  0  0  0  0  0
  1  5  1  0  0  0  0
  1  6  1  0  0  0  0
  1  8  1  0  0  0  0
  2  4  1  0  0  0  0
  2  7  1  0  0  0  0
  2 24  1  0  0  0  0
  3 16  3  0  0  0  0
  4  5  1  0  0  0  0
  4  9  1  0  0  0  0
  4 17  1  0  0  0  0
  5 18  1  0  0  0  0
  5 19  1  0  0  0  0
  6  7  1  0  0  0  0
  6 20  1  0  0  0  0
  6 21  1  0  0  0  0
  7 22  1  0  0  0  0
  7 23  1  0  0  0  0
  8 10  1  0  0  0  0
  8 25  1  0  0  0  0
  8 26  1  0  0  0  0
  9 27  1  0  0  0  0
  9 28  1  0  0  0  0
  9 29  1  0  0  0  0
 10 11  2  0  0  0  0
 10 12  1  0  0  0  0
 11 13  1  0  0  0  0
 11 30  1  0  0  0  0
 12 14  2  0  0  0  0
 12 31  1  0  0  0  0
 13 15  2  0  0  0  0
 13 32  1  0  0  0  0
 14 15  1  0  0  0  0
 14 33  1  0  0  0  0
 15 16  1  0  0  0  0
M  END
> <PUBCHEM_COMPOUND_CID>
65416140

> <PUBCHEM_CONFORMER_RMSD>
0.6

> <PUBCHEM_CONFORMER_DIVERSEORDER>
1
13
6
5
10
8
11
2
9
12
3
7
4

> <PUBCHEM_MMFF94_PARTIAL_CHARGES>
20
1 -0.81
10 -0.14
11 -0.15
12 -0.15
13 -0.15
14 -0.15
15 0.07
16 0.48
2 -0.9
24 0.36
3 -0.56
30 0.15
31 0.15
32 0.15
33 0.15
4 0.27
5 0.27
6 0.27
7 0.27
8 0.41

> <PUBCHEM_EFFECTIVE_ROTOR_COUNT>
3.2

> <PUBCHEM_PHARMACOPHORE_FEATURES>
6
1 1 cation
1 2 cation
1 2 donor
1 3 acceptor
6 1 2 4 5 6 7 rings
6 10 11 12 13 14 15 rings

> <PUBCHEM_HEAVY_ATOM_COUNT>
16

> <PUBCHEM_ATOM_DEF_STEREO_COUNT>
0

> <PUBCHEM_ATOM_UDEF_STEREO_COUNT>
1

> <PUBCHEM_BOND_DEF_STEREO_COUNT>
0

> <PUBCHEM_BOND_UDEF_STEREO_COUNT>
0

> <PUBCHEM_ISOTOPIC_ATOM_COUNT>
0

> <PUBCHEM_COMPONENT_COUNT>
1

> <PUBCHEM_CACTVS_TAUTO_COUNT>
1

> <PUBCHEM_CONFORMER_ID>
03E62BCC00000001

> <PUBCHEM_MMFF94_ENERGY>
26.2195

> <PUBCHEM_FEATURE_SELFOVERLAP>
30.448

> <PUBCHEM_SHAPE_FINGERPRINT>
11046707 91 18187081758463459629
12251169 10 17989486329118271460
12346177 29 18409161134902020583
124424 183 18131345289422367937
12500047 106 18336540500389680589
12507557 5 15267053766130267147
12553582 1 16950555597315074873
12633257 1 18059305334962415491
12670546 177 12180140769077148858
13288520 33 18040997306818981868
14123260 362 12031789184079362707
14178342 30 18340779169285805183
14252887 29 17346604032790199046
14350574 20 13695884609353895097
15209289 33 18187083953313372898
15375358 24 17846218813009995365
15653759 3 18343022194143707505
17804303 29 18411987965979756709
1813 80 17168434761751924014
18186145 218 13407081413492985436
19049666 15 17771639961711331285
19141452 34 18410294705446471115
19422 9 18259990408924516588
200 152 15647054841666126516
20279233 1 18131073714434633725
20281475 54 18334296512799435164
20361792 2 17095522937325898541
20681677 274 18198620119564243145
20871999 31 7853574600027614495
21065199 12 18130787888392249657
21650355 55 18412546522508902673
21713013 43 14273746204327800433
22169311 14 18273214205286200201
22485316 2 18259983760457547508
22646028 28 17967533488600771330
232386 152 18187372059782612581
23402539 116 16371005157735429812
23402655 69 11386354946289480647
23503958 8 18335702779692462371
23559900 14 18411411838993149680
24859131 72 18341894125558124415
26918003 58 18131349695889742457
3286 77 18270396217008049432
351380 3 17530964670351958234
42 15 18410014329443324609
441001 317 10303806592739433866
474 4 13614231612048056282
5104073 3 18271809063664166336
559249 180 17968371248079205091
568465 68 17632298999046470186
5924683 9 17988354975157182311
602551 16 18409731772567690338
76465 3 18335978774164315375

> <PUBCHEM_SHAPE_MULTIPOLES>
314.33
9.73
1.86
1.06
4.6
0.77
0.16
3.73
-3.18
-2.02
-0.08
0.43
-0.07
-0.01

> <PUBCHEM_SHAPE_SELFOVERLAP>
649.957

> <PUBCHEM_SHAPE_VOLUME>
176.4

> <PUBCHEM_COORDINATE_TYPE>
2
5
10

$$$$
68027185
  -OEChem-01162405103D

 81 86  0     0  0  0  0  0  0999 V2000
    3.3446    0.4146   -1.2173 O   0  0  0  0  0  0  0  0  0  0  0  0
  -10.3415   -3.4314    2.2562 O   0  0  0  0  0  0  0  0  0  0  0  0
  -11.7110   -2.7389    0.5793 O   0  0  0  0  0  0  0  0  0  0  0  0
   -3.6373    1.9716   -1.6111 N   0  0  0  0  0  0  0  0  0  0  0  0
   -6.2096    1.7661   -0.3073 N   0  0  0  0  0  0  0  0  0  0  0  0
    2.3921   -1.7233   -1.0487 N   0  0  0  0  0  0  0  0  0  0  0  0
    7.1234   -2.1647   -0.0461 N   0  0  0  0  0  0  0  0  0  0  0  0
    6.5525   -0.0085    0.6695 N   0  0  0  0  0  0  0  0  0  0  0  0
    8.8577   -0.6508    0.3850 N   0  0  0  0  0  0  0  0  0  0  0  0
    5.1683    4.4395    1.4996 N   0  0  0  0  0  0  0  0  0  0  0  0
   -4.1995    0.6688   -1.2343 C   0  0  0  0  0  0  0  0  0  0  0  0
   -4.7116    2.9327   -1.8888 C   0  0  0  0  0  0  0  0  0  0  0  0
   -5.1347    0.8063   -0.0280 C   0  0  0  0  0  0  0  0  0  0  0  0
   -5.6476    3.0692   -0.6830 C   0  0  0  0  0  0  0  0  0  0  0  0
   -2.7480    1.8397   -2.7634 C   0  0  0  0  0  0  0  0  0  0  0  0
   -7.1005    1.8975    0.8438 C   0  0  0  0  0  0  0  0  0  0  0  0
   -1.4099    1.2683   -2.3763 C   0  0  0  0  0  0  0  0  0  0  0  0
   -8.0451    0.7305    0.9577 C   0  0  0  0  0  0  0  0  0  0  0  0
   -0.4679    2.0725   -1.7348 C   0  0  0  0  0  0  0  0  0  0  0  0
   -1.1120   -0.0647   -2.6593 C   0  0  0  0  0  0  0  0  0  0  0  0
   -7.8179   -0.2606    1.9126 C   0  0  0  0  0  0  0  0  0  0  0  0
   -9.1477    0.6408    0.1080 C   0  0  0  0  0  0  0  0  0  0  0  0
    0.7720    1.5436   -1.3761 C   0  0  0  0  0  0  0  0  0  0  0  0
    0.1278   -0.5935   -2.3007 C   0  0  0  0  0  0  0  0  0  0  0  0
    1.0698    0.2105   -1.6590 C   0  0  0  0  0  0  0  0  0  0  0  0
   -8.6934   -1.3413    2.0178 C   0  0  0  0  0  0  0  0  0  0  0  0
  -10.0230   -0.4400    0.2132 C   0  0  0  0  0  0  0  0  0  0  0  0
   -9.7958   -1.4312    1.1680 C   0  0  0  0  0  0  0  0  0  0  0  0
    2.3620   -0.3417   -1.2844 C   0  0  0  0  0  0  0  0  0  0  0  0
  -10.7077   -2.5587    1.2775 C   0  0  0  0  0  0  0  0  0  0  0  0
    3.4991   -2.5339   -0.6964 C   0  0  0  0  0  0  0  0  0  0  0  0
    4.7622   -1.9619   -0.5436 C   0  0  0  0  0  0  0  0  0  0  0  0
    5.8520   -2.7605   -0.1967 C   0  0  0  0  0  0  0  0  0  0  0  0
    3.3259   -3.9043   -0.5025 C   0  0  0  0  0  0  0  0  0  0  0  0
    5.6788   -4.1309   -0.0029 C   0  0  0  0  0  0  0  0  0  0  0  0
    4.4156   -4.7028   -0.1557 C   0  0  0  0  0  0  0  0  0  0  0  0
    6.8283   -5.0100    0.3690 C   0  0  0  0  0  0  0  0  0  0  0  0
    7.5308   -0.8788    0.3545 C   0  0  0  0  0  0  0  0  0  0  0  0
    6.9789    1.2130    1.0526 C   0  0  0  0  0  0  0  0  0  0  0  0
    5.9334    2.1487    1.3910 C   0  0  0  0  0  0  0  0  0  0  0  0
    8.3091    1.5726    1.1260 C   0  0  0  0  0  0  0  0  0  0  0  0
    9.2133    0.5903    0.7769 C   0  0  0  0  0  0  0  0  0  0  0  0
    4.7220    1.7115    1.9152 C   0  0  0  0  0  0  0  0  0  0  0  0
    6.1052    3.5109    1.2040 C   0  0  0  0  0  0  0  0  0  0  0  0
    3.7334    2.6367    2.2317 C   0  0  0  0  0  0  0  0  0  0  0  0
    4.0037    3.9769    2.0072 C   0  0  0  0  0  0  0  0  0  0  0  0
   -4.7476    0.2185   -2.0734 H   0  0  0  0  0  0  0  0  0  0  0  0
   -3.4043   -0.0296   -0.9510 H   0  0  0  0  0  0  0  0  0  0  0  0
   -4.2830    3.9198   -2.1007 H   0  0  0  0  0  0  0  0  0  0  0  0
   -5.2884    2.6291   -2.7731 H   0  0  0  0  0  0  0  0  0  0  0  0
   -5.5461   -0.1878    0.1789 H   0  0  0  0  0  0  0  0  0  0  0  0
   -4.5536    1.1105    0.8534 H   0  0  0  0  0  0  0  0  0  0  0  0
   -5.1039    3.5178    0.1596 H   0  0  0  0  0  0  0  0  0  0  0  0
   -6.4557    3.7591   -0.9556 H   0  0  0  0  0  0  0  0  0  0  0  0
   -3.2090    1.2527   -3.5696 H   0  0  0  0  0  0  0  0  0  0  0  0
   -2.5494    2.8264   -3.2055 H   0  0  0  0  0  0  0  0  0  0  0  0
   -7.7259    2.7956    0.7404 H   0  0  0  0  0  0  0  0  0  0  0  0
   -6.5413    2.0446    1.7780 H   0  0  0  0  0  0  0  0  0  0  0  0
   -0.6887    3.1122   -1.5078 H   0  0  0  0  0  0  0  0  0  0  0  0
   -1.8343   -0.6995   -3.1658 H   0  0  0  0  0  0  0  0  0  0  0  0
   -6.9623   -0.2026    2.5804 H   0  0  0  0  0  0  0  0  0  0  0  0
   -9.3351    1.4067   -0.6400 H   0  0  0  0  0  0  0  0  0  0  0  0
    1.4897    2.1856   -0.8718 H   0  0  0  0  0  0  0  0  0  0  0  0
    0.3273   -1.6248   -2.5763 H   0  0  0  0  0  0  0  0  0  0  0  0
   -8.4787   -2.0904    2.7749 H   0  0  0  0  0  0  0  0  0  0  0  0
  -10.8760   -0.4917   -0.4584 H   0  0  0  0  0  0  0  0  0  0  0  0
    1.5165   -2.2375   -1.0916 H   0  0  0  0  0  0  0  0  0  0  0  0
    4.9392   -0.9215   -0.7556 H   0  0  0  0  0  0  0  0  0  0  0  0
    2.3472   -4.3629   -0.6187 H   0  0  0  0  0  0  0  0  0  0  0  0
    4.2630   -5.7688   -0.0092 H   0  0  0  0  0  0  0  0  0  0  0  0
  -10.9626   -4.1879    2.3216 H   0  0  0  0  0  0  0  0  0  0  0  0
    7.9092   -2.7954   -0.1655 H   0  0  0  0  0  0  0  0  0  0  0  0
    7.5527   -5.0595   -0.4506 H   0  0  0  0  0  0  0  0  0  0  0  0
    7.3238   -4.6387    1.2723 H   0  0  0  0  0  0  0  0  0  0  0  0
    6.5035   -6.0346    0.5815 H   0  0  0  0  0  0  0  0  0  0  0  0
    8.6627    2.5424    1.4518 H   0  0  0  0  0  0  0  0  0  0  0  0
   10.2814    0.7778    0.8084 H   0  0  0  0  0  0  0  0  0  0  0  0
    4.5214    0.6584    2.0954 H   0  0  0  0  0  0  0  0  0  0  0  0
    7.0088    3.9369    0.7792 H   0  0  0  0  0  0  0  0  0  0  0  0
    2.7817    2.3190    2.6420 H   0  0  0  0  0  0  0  0  0  0  0  0
    3.2657    4.7383    2.2373 H   0  0  0  0  0  0  0  0  0  0  0  0
  1 29  2  0  0  0  0
  2 30  1  0  0  0  0
  2 71  1  0  0  0  0
  3 30  2  0  0  0  0
  4 11  1  0  0  0  0
  4 12  1  0  0  0  0
  4 15  1  0  0  0  0
  5 13  1  0  0  0  0
  5 14  1  0  0  0  0
  5 16  1  0  0  0  0
  6 29  1  0  0  0  0
  6 31  1  0  0  0  0
  6 67  1  0  0  0  0
  7 33  1  0  0  0  0
  7 38  1  0  0  0  0
  7 72  1  0  0  0  0
  8 38  1  0  0  0  0
  8 39  2  0  0  0  0
  9 38  2  0  0  0  0
  9 42  1  0  0  0  0
 10 44  1  0  0  0  0
 10 46  2  0  0  0  0
 11 13  1  0  0  0  0
 11 47  1  0  0  0  0
 11 48  1  0  0  0  0
 12 14  1  0  0  0  0
 12 49  1  0  0  0  0
 12 50  1  0  0  0  0
 13 51  1  0  0  0  0
 13 52  1  0  0  0  0
 14 53  1  0  0  0  0
 14 54  1  0  0  0  0
 15 17  1  0  0  0  0
 15 55  1  0  0  0  0
 15 56  1  0  0  0  0
 16 18  1  0  0  0  0
 16 57  1  0  0  0  0
 16 58  1  0  0  0  0
 17 19  2  0  0  0  0
 17 20  1  0  0  0  0
 18 21  2  0  0  0  0
 18 22  1  0  0  0  0
 19 23  1  0  0  0  0
 19 59  1  0  0  0  0
 20 24  2  0  0  0  0
 20 60  1  0  0  0  0
 21 26  1  0  0  0  0
 21 61  1  0  0  0  0
 22 27  2  0  0  0  0
 22 62  1  0  0  0  0
 23 25  2  0  0  0  0
 23 63  1  0  0  0  0
 24 25  1  0  0  0  0
 24 64  1  0  0  0  0
 25 29  1  0  0  0  0
 26 28  2  0  0  0  0
 26 65  1  0  0  0  0
 27 28  1  0  0  0  0
 27 66  1  0  0  0  0
 28 30  1  0  0  0  0
 31 32  2  0  0  0  0
 31 34  1  0  0  0  0
 32 33  1  0  0  0  0
 32 68  1  0  0  0  0
 33 35  2  0  0  0  0
 34 36  2  0  0  0  0
 34 69  1  0  0  0  0
 35 36  1  0  0  0  0
 35 37  1  0  0  0  0
 36 70  1  0  0  0  0
 37 73  1  0  0  0  0
 37 74  1  0  0  0  0
 37 75  1  0  0  0  0
 39 40  1  0  0  0  0
 39 41  1  0  0  0  0
 40 43  1  0  0  0  0
 40 44  2  0  0  0  0
 41 42  2  0  0  0  0
 41 76  1  0  0  0  0
 42 77  1  0  0  0  0
 43 45  2  0  0  0  0
 43 78  1  0  0  0  0
 44 79  1  0  0  0  0
 45 46  1  0  0  0  0
 45 80  1  0  0  0  0
 46 81  1  0  0  0  0
M  END
> <PUBCHEM_COMPOUND_CID>
68027185

> <PUBCHEM_CONFORMER_RMSD>
1.2

> <PUBCHEM_CONFORMER_DIVERSEORDER>
1
109
60
64
65
114
113
80
121
28
85
76
119
99
59
108
73
36
7
56
93
120
54
45
86
92
53
101
123
105
102
82
125
84
61
111
78
94
63
55
22
74
25
88
57
24
91
116
97
115
106
41
103
29
107
35
58
104
52
14
112
70
68
67
8
27
124
43
75
83
49
32
44
9
10
122
37
110
38
31
62
79
12
21
26
33
3
77
81
117
48
87
100
42
51
90
20
50
18
96
30
69
23
71
66
34
19
98
16
46
17
72
47
4
40
118
39
15
6
95
89
2
11
13
5

> <PUBCHEM_MMFF94_PARTIAL_CHARGES>
65
1 -0.57
10 -0.62
11 0.27
12 0.27
13 0.27
14 0.27
15 0.41
16 0.41
17 -0.14
18 -0.14
19 -0.15
2 -0.65
20 -0.15
21 -0.15
22 -0.15
23 -0.15
24 -0.15
25 0.09
26 -0.15
27 -0.15
28 0.09
29 0.54
3 -0.57
30 0.63
31 0.12
32 -0.15
33 0.1
34 -0.15
35 -0.14
36 -0.15
37 0.14
38 0.72
39 0.31
4 -0.81
41 -0.15
42 0.16
43 -0.15
44 0.16
45 -0.15
46 0.16
5 -0.81
59 0.15
6 -0.55
60 0.15
61 0.15
62 0.15
63 0.15
64 0.15
65 0.15
66 0.15
67 0.37
68 0.15
69 0.15
7 -0.6
70 0.15
71 0.5
72 0.4
76 0.15
77 0.15
78 0.15
79 0.15
8 -0.62
80 0.15
81 0.15
9 -0.62

> <PUBCHEM_EFFECTIVE_ROTOR_COUNT>
12.2

> <PUBCHEM_PHARMACOPHORE_FEATURES>
17
1 1 acceptor
1 10 acceptor
1 2 acceptor
1 3 acceptor
1 4 cation
1 5 cation
1 6 donor
1 7 donor
1 8 acceptor
3 2 3 30 anion
4 7 8 9 38 cation
6 10 40 43 44 45 46 rings
6 17 19 20 23 24 25 rings
6 18 21 22 26 27 28 rings
6 31 32 33 34 35 36 rings
6 4 5 11 12 13 14 rings
6 8 9 38 39 41 42 rings

> <PUBCHEM_HEAVY_ATOM_COUNT>
46

> <PUBCHEM_ATOM_DEF_STEREO_COUNT>
0

> <PUBCHEM_ATOM_UDEF_STEREO_COUNT>
0

> <PUBCHEM_BOND_DEF_STEREO_COUNT>
0

> <PUBCHEM_BOND_UDEF_STEREO_COUNT>
0

> <PUBCHEM_ISOTOPIC_ATOM_COUNT>
0

> <PUBCHEM_COMPONENT_COUNT>
1

> <PUBCHEM_CACTVS_TAUTO_COUNT>
6

> <PUBCHEM_CONFORMER_ID>
040E033100000001

> <PUBCHEM_MMFF94_ENERGY>
154.211

> <PUBCHEM_FEATURE_SELFOVERLAP>
86.335

> <PUBCHEM_SHAPE_FINGERPRINT>
11456790 92 18198611148168813568
11534866 41 18186517696836643954
13383668 362 18334579074730153669
13512321 179 16988840571157190224
14017578 135 18410290324860262175
14117953 113 10737577047908550840
15392192 104 18114750429365433188
15776043 110 17988921137556392928
19302320 297 17703789258107407856
212700 22 17894917352380563411
21647283 7 17917714553176832961
21792938 169 18340199821538008525
22002106 203 18113622296671772891
24203241 11 18272367629585697711
42767 23 13912322408921126009
44426699 153 18341615867401174586
44426701 97 17822016402384711196
9962374 69 17458355151710190477

> <PUBCHEM_SHAPE_MULTIPOLES>
894.18
39.78
5.93
2.51
85.52
4
-0.68
20.64
28.15
-9.74
2.01
2.51
-1.48
8.96

> <PUBCHEM_SHAPE_SELFOVERLAP>
1955.886

> <PUBCHEM_SHAPE_VOLUME>
480.6

> <PUBCHEM_COORDINATE_TYPE>
2
5
10

$$$$
58223322
  -OEChem-01162405103D

 59 63  0     1  0  0  0  0  0999 V2000
  -10.1688   -1.7038   -0.7073 Cl  0  0  0  0  0  0  0  0  0  0  0  0
   -6.0810   -0.3284   -1.7585 O   0  0  0  0  0  0  0  0  0  0  0  0
    5.2612   -1.9557   -0.9837 O   0  0  0  0  0  0  0  0  0  0  0  0
   -5.0688   -1.1770    0.1527 N   0  0  0  0  0  0  0  0  0  0  0  0
   -1.7213    0.6361    0.4735 N   0  0  0  0  0  0  0  0  0  0  0  0
   -0.7379   -0.2678    0.3072 N   0  0  0  0  0  0  0  0  0  0  0  0
   -2.0708    3.0301    0.3765 N   0  0  0  0  0  0  0  0  0  0  0  0
   -0.0203    4.2182   -0.2015 N   0  0  0  0  0  0  0  0  0  0  0  0
    2.0476    3.0988   -0.6107 N   0  0  0  0  0  0  0  0  0  0  0  0
   -3.1143    0.1659    0.8451 C   0  0  2  0  0  0  0  0  0  0  0  0
   -3.1360   -0.5436    2.2125 C   0  0  0  0  0  0  0  0  0  0  0  0
   -3.7282   -0.7342   -0.2410 C   0  0  0  0  0  0  0  0  0  0  0  0
   -4.5477   -1.0231    2.5550 C   0  0  0  0  0  0  0  0  0  0  0  0
   -5.1272   -1.8860    1.4366 C   0  0  0  0  0  0  0  0  0  0  0  0
   -1.3167    1.9236    0.2802 C   0  0  0  0  0  0  0  0  0  0  0  0
   -6.1568   -0.9275   -0.6827 C   0  0  0  0  0  0  0  0  0  0  0  0
    0.0290    1.8577   -0.0356 C   0  0  0  0  0  0  0  0  0  0  0  0
    0.3254    0.4823   -0.0026 C   0  0  0  0  0  0  0  0  0  0  0  0
   -7.4982   -1.4317   -0.2135 C   0  0  0  0  0  0  0  0  0  0  0  0
    0.6805    3.0617   -0.2814 C   0  0  0  0  0  0  0  0  0  0  0  0
    1.5971   -0.1472   -0.2543 C   0  0  0  0  0  0  0  0  0  0  0  0
   -8.5772   -1.0883   -1.2189 C   0  0  0  0  0  0  0  0  0  0  0  0
   -1.3337    4.1318    0.1179 C   0  0  0  0  0  0  0  0  0  0  0  0
    1.9370   -0.5373   -1.5496 C   0  0  0  0  0  0  0  0  0  0  0  0
    2.4886   -0.3649    0.7962 C   0  0  0  0  0  0  0  0  0  0  0  0
    3.1686   -1.1447   -1.7946 C   0  0  0  0  0  0  0  0  0  0  0  0
    3.7201   -0.9723    0.5514 C   0  0  0  0  0  0  0  0  0  0  0  0
    4.0600   -1.3622   -0.7440 C   0  0  0  0  0  0  0  0  0  0  0  0
    6.3839   -1.3974   -0.3959 C   0  0  0  0  0  0  0  0  0  0  0  0
    6.5718   -0.0155   -0.4239 C   0  0  0  0  0  0  0  0  0  0  0  0
    7.3272   -2.2169    0.2238 C   0  0  0  0  0  0  0  0  0  0  0  0
    7.7028    0.5469    0.1679 C   0  0  0  0  0  0  0  0  0  0  0  0
    8.4582   -1.6547    0.8158 C   0  0  0  0  0  0  0  0  0  0  0  0
    8.6460   -0.2727    0.7877 C   0  0  0  0  0  0  0  0  0  0  0  0
   -3.7123    1.0835    0.9213 H   0  0  0  0  0  0  0  0  0  0  0  0
   -2.7755    0.1360    2.9939 H   0  0  0  0  0  0  0  0  0  0  0  0
   -2.4538   -1.4032    2.2046 H   0  0  0  0  0  0  0  0  0  0  0  0
   -3.7591   -0.1994   -1.1965 H   0  0  0  0  0  0  0  0  0  0  0  0
   -3.1210   -1.6342   -0.3984 H   0  0  0  0  0  0  0  0  0  0  0  0
   -4.5295   -1.5905    3.4919 H   0  0  0  0  0  0  0  0  0  0  0  0
   -5.1941   -0.1511    2.7148 H   0  0  0  0  0  0  0  0  0  0  0  0
   -6.1439   -2.1820    1.6994 H   0  0  0  0  0  0  0  0  0  0  0  0
   -4.5423   -2.8067    1.3240 H   0  0  0  0  0  0  0  0  0  0  0  0
   -7.7337   -0.9689    0.7514 H   0  0  0  0  0  0  0  0  0  0  0  0
   -7.4419   -2.5188   -0.0876 H   0  0  0  0  0  0  0  0  0  0  0  0
   -8.3639   -1.5262   -2.1995 H   0  0  0  0  0  0  0  0  0  0  0  0
   -8.6739   -0.0051   -1.3459 H   0  0  0  0  0  0  0  0  0  0  0  0
   -1.8646    5.0761    0.1733 H   0  0  0  0  0  0  0  0  0  0  0  0
    1.2537   -0.3740   -2.3797 H   0  0  0  0  0  0  0  0  0  0  0  0
    2.2366   -0.0704    1.8122 H   0  0  0  0  0  0  0  0  0  0  0  0
    2.5957    2.2538   -0.6773 H   0  0  0  0  0  0  0  0  0  0  0  0
    2.4822    3.9956   -0.7818 H   0  0  0  0  0  0  0  0  0  0  0  0
    3.4282   -1.4458   -2.8058 H   0  0  0  0  0  0  0  0  0  0  0  0
    4.3849   -1.1501    1.3925 H   0  0  0  0  0  0  0  0  0  0  0  0
    5.8642    0.6444   -0.9189 H   0  0  0  0  0  0  0  0  0  0  0  0
    7.1858   -3.2939    0.2487 H   0  0  0  0  0  0  0  0  0  0  0  0
    7.8517    1.6224    0.1419 H   0  0  0  0  0  0  0  0  0  0  0  0
    9.1927   -2.2928    1.2984 H   0  0  0  0  0  0  0  0  0  0  0  0
    9.5272    0.1650    1.2475 H   0  0  0  0  0  0  0  0  0  0  0  0
  1 22  1  0  0  0  0
  2 16  2  0  0  0  0
  3 28  1  0  0  0  0
  3 29  1  0  0  0  0
  4 12  1  0  0  0  0
  4 14  1  0  0  0  0
  4 16  1  0  0  0  0
  5  6  1  0  0  0  0
  5 10  1  0  0  0  0
  5 15  1  0  0  0  0
  6 18  2  0  0  0  0
  7 15  2  0  0  0  0
  7 23  1  0  0  0  0
  8 20  1  0  0  0  0
  8 23  2  0  0  0  0
  9 20  1  0  0  0  0
  9 51  1  0  0  0  0
  9 52  1  0  0  0  0
 10 11  1  0  0  0  0
 10 12  1  0  0  0  0
 10 35  1  0  0  0  0
 11 13  1  0  0  0  0
 11 36  1  0  0  0  0
 11 37  1  0  0  0  0
 12 38  1  0  0  0  0
 12 39  1  0  0  0  0
 13 14  1  0  0  0  0
 13 40  1  0  0  0  0
 13 41  1  0  0  0  0
 14 42  1  0  0  0  0
 14 43  1  0  0  0  0
 15 17  1  0  0  0  0
 16 19  1  0  0  0  0
 17 18  1  0  0  0  0
 17 20  2  0  0  0  0
 18 21  1  0  0  0  0
 19 22  1  0  0  0  0
 19 44  1  0  0  0  0
 19 45  1  0  0  0  0
 21 24  2  0  0  0  0
 21 25  1  0  0  0  0
 22 46  1  0  0  0  0
 22 47  1  0  0  0  0
 23 48  1  0  0  0  0
 24 26  1  0  0  0  0
 24 49  1  0  0  0  0
 25 27  2  0  0  0  0
 25 50  1  0  0  0  0
 26 28  2  0  0  0  0
 26 53  1  0  0  0  0
 27 28  1  0  0  0  0
 27 54  1  0  0  0  0
 29 30  2  0  0  0  0
 29 31  1  0  0  0  0
 30 32  1  0  0  0  0
 30 55  1  0  0  0  0
 31 33  2  0  0  0  0
 31 56  1  0  0  0  0
 32 34  2  0  0  0  0
 32 57  1  0  0  0  0
 33 34  1  0  0  0  0
 33 58  1  0  0  0  0
 34 59  1  0  0  0  0
M  END
> <PUBCHEM_COMPOUND_CID>
58223322

> <PUBCHEM_CONFORMER_RMSD>
1

> <PUBCHEM_CONFORMER_DIVERSEORDER>
1
117
113
144
32
82
97
29
16
132
79
131
143
123
119
67
89
70
147
78
17
85
57
44
47
122
74
98
10
83
109
51
104
130
133
38
8
137
21
136
69
88
126
59
107
121
35
111
75
61
112
149
68
116
72
93
56
141
87
129
31
33
94
50
105
66
54
148
102
100
127
73
106
30
76
139
22
14
125
46
9
138
145
6
19
60
115
12
48
25
91
114
34
42
92
37
36
58
23
124
45
81
7
71
11
40
62
140
41
24
103
3
55
64
53
27
15
52
65
101
26
13
20
77
146
49
128
96
134
84
120
2
110
18
5
80
118
142
108
28
135
99
4
43
86
63
90
39
95

> <PUBCHEM_MMFF94_PARTIAL_CHARGES>
43
1 -0.29
10 0.26
12 0.3
14 0.3
15 0.11
16 0.57
18 0.23
19 0.06
2 -0.57
20 0.41
21 0.05
22 0.29
23 0.47
24 -0.15
25 -0.15
26 -0.15
27 -0.15
28 0.08
29 0.08
3 -0.17
30 -0.15
31 -0.15
32 -0.15
33 -0.15
34 -0.15
4 -0.66
48 0.15
49 0.15
5 0.31
50 0.15
51 0.4
52 0.4
53 0.15
54 0.15
55 0.15
56 0.15
57 0.15
58 0.15
59 0.15
6 -0.71
7 -0.57
8 -0.62
9 -0.9

> <PUBCHEM_EFFECTIVE_ROTOR_COUNT>
8.2

> <PUBCHEM_PHARMACOPHORE_FEATURES>
12
1 2 acceptor
1 3 acceptor
1 6 acceptor
1 9 cation
1 9 donor
3 5 7 15 cation
3 7 8 23 cation
5 5 6 15 17 18 rings
6 21 24 25 26 27 28 rings
6 29 30 31 32 33 34 rings
6 4 10 11 12 13 14 rings
6 7 8 15 17 20 23 rings

> <PUBCHEM_HEAVY_ATOM_COUNT>
34

> <PUBCHEM_ATOM_DEF_STEREO_COUNT>
1

> <PUBCHEM_ATOM_UDEF_STEREO_COUNT>
0

> <PUBCHEM_BOND_DEF_STEREO_COUNT>
0

> <PUBCHEM_BOND_UDEF_STEREO_COUNT>
0

> <PUBCHEM_ISOTOPIC_ATOM_COUNT>
0

> <PUBCHEM_COMPONENT_COUNT>
1

> <PUBCHEM_CACTVS_TAUTO_COUNT>
5

> <PUBCHEM_CONFORMER_ID>
03786ADA00000001

> <PUBCHEM_MMFF94_ENERGY>
92.8701

> <PUBCHEM_FEATURE_SELFOVERLAP>
61.177

> <PUBCHEM_SHAPE_FINGERPRINT>
10 15 12031790262427630815
10369192 42 10592046847574558683
10411042 1 18411418406045702397
10674148 151 14779263124696116159
11135609 99 16773223128673696631
11135926 11 17604153636248919395
11672396 167 18117833306153410170
12202916 173 18410858758948927671
12522641 24 17346313864889872336
12758862 11 17167581617953602677
13782708 43 17985841333005428534
13811026 1 18408040718982729331
13914758 101 15285356206985478022
14068700 675 18410573972404154181
14150022 121 17060063597257226809
1454969 45 18272374187472367262
14849402 71 16056588903146636570
15183329 4 15430036547821658239
15188451 53 17894914006389607622
15357212 105 10446767306898177050
16087824 20 18193277391720489301
20105231 36 13254802347929191980
20771845 65 17988359369156737321
21057603 130 17703780462446233807
21585482 111 8357719399369646063
21781055 127 15068885452904994325
21792961 116 17748829601288332667
21814621 53 15647632183838717844
23559900 14 17677339440827766717
24893992 56 11241975893420453831
3633792 109 16950279573047553650
3986486 107 18262784200622687693
4280585 95 18410575097864537439
4339292 15 18271243821027020150
508180 173 14851610998214331445
5104073 3 18123479285249316874
5219985 9 18342738520323141433
58083652 198 18336553805903075249
5969126 39 18412542080921894613
6081469 158 18410569595705450143
6126387 218 18131071511754675427
6698420 124 10953744391254048615
9663363 56 18411414016873676623
9689198 14 12967131610274653802
9962374 69 18130219480295446815

> <PUBCHEM_SHAPE_MULTIPOLES>
659.95
26.66
3.5
1.51
6.65
5.58
-0.45
-24.86
2.79
0.22
0.15
1.77
-0.72
-0.21

> <PUBCHEM_SHAPE_SELFOVERLAP>
1431.244

> <PUBCHEM_SHAPE_VOLUME>
360.1

> <PUBCHEM_COORDINATE_TYPE>
2
5
10

$$$$
89392896
  -OEChem-01162405103D

 52 54  0     0  0  0  0  0  0999 V2000
    7.5026   -2.1960   -0.1674 O   0  0  0  0  0  0  0  0  0  0  0  0
    8.4429   -0.1341   -0.3440 O   0  0  0  0  0  0  0  0  0  0  0  0
   -8.2147    0.8719    0.6622 O   0  0  0  0  0  0  0  0  0  0  0  0
   -7.9977   -1.1696    1.6375 O   0  0  0  0  0  0  0  0  0  0  0  0
    1.2254    1.0163    0.0867 N   0  3  0  0  0  0  0  0  0  0  0  0
   -1.3185   -0.1709   -0.7590 N   0  0  0  0  0  0  0  0  0  0  0  0
    1.0959   -0.4549   -0.3141 C   0  0  0  0  0  0  0  0  0  0  0  0
   -0.1293    1.5397    0.5693 C   0  0  0  0  0  0  0  0  0  0  0  0
   -0.0496   -0.6674   -1.3008 C   0  0  0  0  0  0  0  0  0  0  0  0
   -1.2320    1.2594   -0.4484 C   0  0  0  0  0  0  0  0  0  0  0  0
    2.2246    1.1176    1.2441 C   0  0  0  0  0  0  0  0  0  0  0  0
    1.7715    1.8615   -1.0632 C   0  0  0  0  0  0  0  0  0  0  0  0
   -2.4137   -0.4300   -1.6930 C   0  0  0  0  0  0  0  0  0  0  0  0
    3.5899    0.6069    0.8885 C   0  0  0  0  0  0  0  0  0  0  0  0
   -3.7546   -0.3903   -1.0096 C   0  0  0  0  0  0  0  0  0  0  0  0
    4.6307    1.5054    0.6535 C   0  0  0  0  0  0  0  0  0  0  0  0
    3.8184   -0.7657    0.7926 C   0  0  0  0  0  0  0  0  0  0  0  0
   -4.1667   -1.4641   -0.2204 C   0  0  0  0  0  0  0  0  0  0  0  0
   -4.5848    0.7198   -1.1655 C   0  0  0  0  0  0  0  0  0  0  0  0
    5.9000    1.0311    0.3228 C   0  0  0  0  0  0  0  0  0  0  0  0
    5.0877   -1.2400    0.4619 C   0  0  0  0  0  0  0  0  0  0  0  0
    6.1287   -0.3416    0.2272 C   0  0  0  0  0  0  0  0  0  0  0  0
   -5.4089   -1.4277    0.4130 C   0  0  0  0  0  0  0  0  0  0  0  0
   -5.8270    0.7560   -0.5323 C   0  0  0  0  0  0  0  0  0  0  0  0
   -6.2390   -0.3177    0.2571 C   0  0  0  0  0  0  0  0  0  0  0  0
    7.4521   -0.8366   -0.1168 C   0  0  0  0  0  0  0  0  0  0  0  0
   -7.5339   -0.2790    0.9180 C   0  0  0  0  0  0  0  0  0  0  0  0
    2.0085   -0.7670   -0.8257 H   0  0  0  0  0  0  0  0  0  0  0  0
    0.9185   -1.0395    0.5961 H   0  0  0  0  0  0  0  0  0  0  0  0
   -0.3528    1.0394    1.5199 H   0  0  0  0  0  0  0  0  0  0  0  0
   -0.0236    2.6148    0.7537 H   0  0  0  0  0  0  0  0  0  0  0  0
    0.1786   -0.1948   -2.2646 H   0  0  0  0  0  0  0  0  0  0  0  0
   -0.1267   -1.7458   -1.4888 H   0  0  0  0  0  0  0  0  0  0  0  0
   -2.1661    1.6080    0.0063 H   0  0  0  0  0  0  0  0  0  0  0  0
   -1.0859    1.8584   -1.3551 H   0  0  0  0  0  0  0  0  0  0  0  0
    1.8187    0.5457    2.0888 H   0  0  0  0  0  0  0  0  0  0  0  0
    2.2589    2.1699    1.5544 H   0  0  0  0  0  0  0  0  0  0  0  0
    1.9742    2.8698   -0.6896 H   0  0  0  0  0  0  0  0  0  0  0  0
    2.6780    1.3989   -1.4621 H   0  0  0  0  0  0  0  0  0  0  0  0
    1.0274    1.9115   -1.8604 H   0  0  0  0  0  0  0  0  0  0  0  0
   -2.3155   -1.4352   -2.1270 H   0  0  0  0  0  0  0  0  0  0  0  0
   -2.3880    0.2556   -2.5512 H   0  0  0  0  0  0  0  0  0  0  0  0
    4.4668    2.5774    0.7240 H   0  0  0  0  0  0  0  0  0  0  0  0
    3.0526   -1.4947    1.0375 H   0  0  0  0  0  0  0  0  0  0  0  0
   -3.5287   -2.3345   -0.0912 H   0  0  0  0  0  0  0  0  0  0  0  0
   -4.2754    1.5630   -1.7776 H   0  0  0  0  0  0  0  0  0  0  0  0
    6.6975    1.7474    0.1435 H   0  0  0  0  0  0  0  0  0  0  0  0
    5.2257   -2.3165    0.4133 H   0  0  0  0  0  0  0  0  0  0  0  0
   -5.7114   -2.2743    1.0238 H   0  0  0  0  0  0  0  0  0  0  0  0
   -6.4413    1.6396   -0.6806 H   0  0  0  0  0  0  0  0  0  0  0  0
    8.3991   -2.5195   -0.3999 H   0  0  0  0  0  0  0  0  0  0  0  0
   -9.0862    0.8880    1.1124 H   0  0  0  0  0  0  0  0  0  0  0  0
  1 26  1  0  0  0  0
  1 51  1  0  0  0  0
  2 26  2  0  0  0  0
  3 27  1  0  0  0  0
  3 52  1  0  0  0  0
  4 27  2  0  0  0  0
  5  7  1  0  0  0  0
  5  8  1  0  0  0  0
  5 11  1  0  0  0  0
  5 12  1  0  0  0  0
  6  9  1  0  0  0  0
  6 10  1  0  0  0  0
  6 13  1  0  0  0  0
  7  9  1  0  0  0  0
  7 28  1  0  0  0  0
  7 29  1  0  0  0  0
  8 10  1  0  0  0  0
  8 30  1  0  0  0  0
  8 31  1  0  0  0  0
  9 32  1  0  0  0  0
  9 33  1  0  0  0  0
 10 34  1  0  0  0  0
 10 35  1  0  0  0  0
 11 14  1  0  0  0  0
 11 36  1  0  0  0  0
 11 37  1  0  0  0  0
 12 38  1  0  0  0  0
 12 39  1  0  0  0  0
 12 40  1  0  0  0  0
 13 15  1  0  0  0  0
 13 41  1  0  0  0  0
 13 42  1  0  0  0  0
 14 16  2  0  0  0  0
 14 17  1  0  0  0  0
 15 18  2  0  0  0  0
 15 19  1  0  0  0  0
 16 20  1  0  0  0  0
 16 43  1  0  0  0  0
 17 21  2  0  0  0  0
 17 44  1  0  0  0  0
 18 23  1  0  0  0  0
 18 45  1  0  0  0  0
 19 24  2  0  0  0  0
 19 46  1  0  0  0  0
 20 22  2  0  0  0  0
 20 47  1  0  0  0  0
 21 22  1  0  0  0  0
 21 48  1  0  0  0  0
 22 26  1  0  0  0  0
 23 25  2  0  0  0  0
 23 49  1  0  0  0  0
 24 25  1  0  0  0  0
 24 50  1  0  0  0  0
 25 27  1  0  0  0  0
M  CHG  1   5   1
M  END
> <PUBCHEM_COMPOUND_CID>
89392896

> <PUBCHEM_CONFORMER_RMSD>
0.8

> <PUBCHEM_CONFORMER_DIVERSEORDER>
1
67
44
82
57
29
62
34
66
64
33
71
78
56
2
68
75
70
31
14
40
74
52
79
21
19
24
60
42
55
13
9
8
45
63
27
5
23
10
73
12
26
20
53
37
77
41
28
4
50
65
15
16
22
39
46
58
35
54
72
11
25
36
76
32
80
3
49
47
6
61
81
38
30
7
69
51
17
18
59
43
48

> <PUBCHEM_MMFF94_PARTIAL_CHARGES>
37
1 -0.65
10 0.27
11 0.65
12 0.5
13 0.41
14 -0.14
15 -0.14
16 -0.15
17 -0.15
18 -0.15
19 -0.15
2 -0.57
20 -0.15
21 -0.15
22 0.09
23 -0.15
24 -0.15
25 0.09
26 0.63
27 0.63
3 -0.65
4 -0.57
43 0.15
44 0.15
45 0.15
46 0.15
47 0.15
48 0.15
49 0.15
5 -1.01
50 0.15
51 0.5
52 0.5
6 -0.81
7 0.5
8 0.5
9 0.27

> <PUBCHEM_EFFECTIVE_ROTOR_COUNT>
7.2

> <PUBCHEM_PHARMACOPHORE_FEATURES>
11
1 1 acceptor
1 2 acceptor
1 3 acceptor
1 4 acceptor
1 5 cation
1 6 cation
3 1 2 26 anion
3 3 4 27 anion
6 14 16 17 20 21 22 rings
6 15 18 19 23 24 25 rings
6 5 6 7 8 9 10 rings

> <PUBCHEM_HEAVY_ATOM_COUNT>
27

> <PUBCHEM_ATOM_DEF_STEREO_COUNT>
0

> <PUBCHEM_ATOM_UDEF_STEREO_COUNT>
0

> <PUBCHEM_BOND_DEF_STEREO_COUNT>
0

> <PUBCHEM_BOND_UDEF_STEREO_COUNT>
0

> <PUBCHEM_ISOTOPIC_ATOM_COUNT>
0

> <PUBCHEM_COMPONENT_COUNT>
1

> <PUBCHEM_CACTVS_TAUTO_COUNT>
1

> <PUBCHEM_CONFORMER_ID>
0554070000000001

> <PUBCHEM_MMFF94_ENERGY>
89.5813

> <PUBCHEM_FEATURE_SELFOVERLAP>
55.938

> <PUBCHEM_SHAPE_FINGERPRINT>
10 15 18272091617584911817
10299344 5 17603304851578366827
10429389 143 10519984859294781547
10533779 1 15553344501783339555
10595046 47 13046209555415855340
10883706 142 15051736400569772503
11089746 13 14549013308038496443
11315181 36 11386363739168898927
12592606 108 18272082829781468903
12838862 33 11025804228156701654
13673619 4 17603300470996834885
13685833 64 17967531281230076897
13914758 101 13973969800580092495
13968360 50 9151180852265726512
14123256 10 12973885905339006003
14251764 18 18272931661458426533
14341114 176 18334853935425494877
14344974 204 18119537780693480571
14347424 109 16630518558239237504
14444916 359 18410296891200619135
14617045 38 18113615681752276378
14767858 380 13479131293674450535
14856354 85 17531248370543837951
14933364 13 18335416872267115500
15131766 46 12389501038082533794
15183329 4 18272922813055702342
15352257 5 18113334210780415250
15461852 350 12391504321733340237
1577012 14 17131827728690231796
15979999 66 11602823523371601303
18335252 98 17530683195770925266
18681886 176 12901549074387405549
20105231 36 18411140230004951238
20157964 124 8214148477995957312
20511986 3 11743841347924960900
20554085 129 12967127185893727062
21130935 74 18129656533951320079
21150785 3 13334737933551922419
21267235 1 18413388718651350612
21344244 181 18186803557080887938
21403212 168 16343985788652973903
21591340 7 16917344840931117959
21774942 28 13182476438446844459
21792961 116 18337664218110122237
23035841 295 18260823800199638162
23081809 10 17202472458770985468
23522609 53 17773330121257669441
246663 6 17894351081377665723
24893992 56 16271923853474325795
2838139 119 14261350267671793779
300161 21 13183026228783844917
3009799 131 11312058763894497935
3178227 256 18343300367002951442
34797466 226 16950285118134890230
4325135 7 11746936486099483034
437795 51 18261392222121489810
439807 62 18410573951731060370
465052 167 18273212006964285412
474113 269 11887413365321346508
4938544 92 16878213157838007397
5207 217 12685093670450971748
5381727 24 16343982521185240199
5385378 56 16773525390843655607
54039377 194 18113624491009131843
5719381 82 18339922603380608262
57634706 306 10303515196594153758
6058803 2 16770114890157538821
6394761 36 16845854589780431794
7226269 152 16630526254509486241
999808 66 17967818258487428315

> <PUBCHEM_SHAPE_MULTIPOLES>
522.21
24.97
1.68
1.25
3.95
0.01
0.09
-7.53
-6.36
-1.21
-0.05
1.32
0.01
0.81

> <PUBCHEM_SHAPE_SELFOVERLAP>
1111.542

> <PUBCHEM_SHAPE_VOLUME>
290.5

> <PUBCHEM_COORDINATE_TYPE>
2
5
10

$$$$
21516532
  -OEChem-01162405103D

 24 24  0     0  0  0  0  0  0999 V2000
   -3.8602   -1.2016    0.1688 O   0  5  0  0  0  0  0  0  0  0  0  0
   -3.8032    0.9739    0.4572 O   0  0  0  0  0  0  0  0  0  0  0  0
    2.2906   -0.1503   -0.7736 N   0  0  0  0  0  0  0  0  0  0  0  0
   -3.2328   -0.1156    0.2075 N   0  3  0  0  0  0  0  0  0  0  0  0
    4.4716   -0.3414    0.0349 N   0  0  0  0  0  0  0  0  0  0  0  0
    2.7827   -0.4727    1.5640 N   0  0  0  0  0  0  0  0  0  0  0  0
    0.2571    1.0715   -0.2466 C   0  0  0  0  0  0  0  0  0  0  0  0
    0.9124   -0.1278   -0.5258 C   0  0  0  0  0  0  0  0  0  0  0  0
   -1.1162    1.0756   -0.0029 C   0  0  0  0  0  0  0  0  0  0  0  0
   -1.8344   -0.1197   -0.0384 C   0  0  0  0  0  0  0  0  0  0  0  0
    0.1943   -1.3231   -0.5613 C   0  0  0  0  0  0  0  0  0  0  0  0
   -1.1792   -1.3190   -0.3176 C   0  0  0  0  0  0  0  0  0  0  0  0
    1.0056    2.3635   -0.2012 C   0  0  0  0  0  0  0  0  0  0  0  0
    3.1116   -0.3134    0.2351 C   0  0  0  0  0  0  0  0  0  0  0  0
   -1.6089    2.0206    0.2145 H   0  0  0  0  0  0  0  0  0  0  0  0
    0.6955   -2.2629   -0.7787 H   0  0  0  0  0  0  0  0  0  0  0  0
   -1.7062   -2.2690   -0.3540 H   0  0  0  0  0  0  0  0  0  0  0  0
    0.3296    3.2237   -0.1462 H   0  0  0  0  0  0  0  0  0  0  0  0
    1.6567    2.3957    0.6782 H   0  0  0  0  0  0  0  0  0  0  0  0
    1.6116    2.4930   -1.1042 H   0  0  0  0  0  0  0  0  0  0  0  0
    4.8666   -0.2361   -0.8933 H   0  0  0  0  0  0  0  0  0  0  0  0
    5.1186   -0.4661    0.8059 H   0  0  0  0  0  0  0  0  0  0  0  0
    1.8209   -0.4748    1.8851 H   0  0  0  0  0  0  0  0  0  0  0  0
    3.5012   -0.5920    2.2699 H   0  0  0  0  0  0  0  0  0  0  0  0
  1  4  1  0  0  0  0
  2  4  2  0  0  0  0
  3  8  1  0  0  0  0
  3 14  2  0  0  0  0
  4 10  1  0  0  0  0
  5 14  1  0  0  0  0
  5 21  1  0  0  0  0
  5 22  1  0  0  0  0
  6 14  1  0  0  0  0
  6 23  1  0  0  0  0
  6 24  1  0  0  0  0
  7  8  2  0  0  0  0
  7  9  1  0  0  0  0
  7 13  1  0  0  0  0
  8 11  1  0  0  0  0
  9 10  2  0  0  0  0
  9 15  1  0  0  0  0
 10 12  1  0  0  0  0
 11 12  2  0  0  0  0
 11 16  1  0  0  0  0
 12 17  1  0  0  0  0
 13 18  1  0  0  0  0
 13 19  1  0  0  0  0
 13 20  1  0  0  0  0
M  CHG  2   1  -1   4   1
M  END
> <PUBCHEM_COMPOUND_CID>
21516532

> <PUBCHEM_CONFORMER_RMSD>
0.6

> <PUBCHEM_CONFORMER_DIVERSEORDER>
1
2

> <PUBCHEM_MMFF94_PARTIAL_CHARGES>
21
1 -0.52
10 0.13
11 -0.15
12 -0.15
13 0.14
14 0.55
15 0.15
16 0.15
17 0.15
2 -0.52
21 0.4
22 0.4
23 0.4
24 0.4
3 -0.63
4 0.91
5 -0.85
6 -0.85
7 -0.14
8 0.18
9 -0.15

> <PUBCHEM_EFFECTIVE_ROTOR_COUNT>
2

> <PUBCHEM_PHARMACOPHORE_FEATURES>
7
1 1 acceptor
1 1 anion
1 2 acceptor
1 5 donor
1 6 donor
4 3 5 6 14 cation
6 7 8 9 10 11 12 rings

> <PUBCHEM_HEAVY_ATOM_COUNT>
14

> <PUBCHEM_ATOM_DEF_STEREO_COUNT>
0

> <PUBCHEM_ATOM_UDEF_STEREO_COUNT>
0

> <PUBCHEM_BOND_DEF_STEREO_COUNT>
0

> <PUBCHEM_BOND_UDEF_STEREO_COUNT>
0

> <PUBCHEM_ISOTOPIC_ATOM_COUNT>
0

> <PUBCHEM_COMPONENT_COUNT>
1

> <PUBCHEM_CACTVS_TAUTO_COUNT>
2

> <PUBCHEM_CONFORMER_ID>
014850F400000001

> <PUBCHEM_MMFF94_ENERGY>
47.7726

> <PUBCHEM_FEATURE_SELFOVERLAP>
35.657

> <PUBCHEM_SHAPE_FINGERPRINT>
10130415 120 18260268559596429532
10219947 1 18342178855834883838
10857977 72 18341890779424828364
11132069 177 18341616979760384597
12032990 46 18412271605504018166
12119455 92 16773791459661573950
12251169 10 18341048609352624239
124424 183 18040994034117212469
13705890 14 15068631495318940768
13922767 16 18343019991105228385
14993402 34 18410011043877726350
15375462 189 18040148513827995514
16945 1 18412547604476307367
193761 8 17836085954308538583
200 152 15719389508650269554
20510252 161 18200594687976781080
20511035 2 18125165089001769580
20671657 1 18120100725554673868
21501502 16 18125159595981249551
21501925 9 18341327894275763623
2297311 6 18270408196700492846
23380061 330 18343581850163051175
23402539 116 18201148884454238550
23402655 69 18126837215357129221
23463225 33 18408042892368037022
23532345 42 18341043086404437960
23552423 10 17901951068778288836
23557571 272 16343706543291712721
2748010 2 17981052920572701101
4072396 5 18264475201259174547
53812653 166 18201719509603842817
7364860 26 18126003999553128496

> <PUBCHEM_SHAPE_MULTIPOLES>
256.45
6.32
1.66
0.85
0.08
0.77
-0.17
-1.24
-1.47
0.22
0.16
-0.47
-0.1
-0.25

> <PUBCHEM_SHAPE_SELFOVERLAP>
536.827

> <PUBCHEM_SHAPE_VOLUME>
144.6

> <PUBCHEM_COORDINATE_TYPE>
2
5
10

$$$$
22156152
  -OEChem-01162405103D

 24 24  0     0  0  0  0  0  0999 V2000
    0.0425   -2.6842   -1.2220 O   0  5  0  0  0  0  0  0  0  0  0  0
    0.6799   -2.4493    0.8654 O   0  0  0  0  0  0  0  0  0  0  0  0
    1.1642    0.4674   -0.7669 N   0  0  0  0  0  0  0  0  0  0  0  0
    0.0355   -2.0586   -0.1360 N   0  3  0  0  0  0  0  0  0  0  0  0
    3.4188    0.7235   -0.2324 N   0  0  0  0  0  0  0  0  0  0  0  0
    1.9355    0.7280    1.5019 N   0  0  0  0  0  0  0  0  0  0  0  0
   -0.9426    1.5348   -0.2402 C   0  0  0  0  0  0  0  0  0  0  0  0
   -0.1721    0.3769   -0.3471 C   0  0  0  0  0  0  0  0  0  0  0  0
   -0.7301   -0.8633   -0.0368 C   0  0  0  0  0  0  0  0  0  0  0  0
   -2.2714    1.4524    0.1764 C   0  0  0  0  0  0  0  0  0  0  0  0
   -2.0588   -0.9456    0.3801 C   0  0  0  0  0  0  0  0  0  0  0  0
   -0.3693    2.8756   -0.5654 C   0  0  0  0  0  0  0  0  0  0  0  0
   -2.8297    0.2122    0.4864 C   0  0  0  0  0  0  0  0  0  0  0  0
    2.0976    0.6301    0.1368 C   0  0  0  0  0  0  0  0  0  0  0  0
   -2.8853    2.3447    0.2664 H   0  0  0  0  0  0  0  0  0  0  0  0
   -2.5076   -1.9050    0.6258 H   0  0  0  0  0  0  0  0  0  0  0  0
    0.3689    3.1682    0.1881 H   0  0  0  0  0  0  0  0  0  0  0  0
    0.1049    2.8666   -1.5525 H   0  0  0  0  0  0  0  0  0  0  0  0
   -1.1423    3.6515   -0.5910 H   0  0  0  0  0  0  0  0  0  0  0  0
   -3.8641    0.1480    0.8113 H   0  0  0  0  0  0  0  0  0  0  0  0
    3.6953    0.6683   -1.2067 H   0  0  0  0  0  0  0  0  0  0  0  0
    4.1538    0.8486    0.4549 H   0  0  0  0  0  0  0  0  0  0  0  0
    1.0231    0.6793    1.9415 H   0  0  0  0  0  0  0  0  0  0  0  0
    2.7332    0.8544    2.1154 H   0  0  0  0  0  0  0  0  0  0  0  0
  1  4  1  0  0  0  0
  2  4  2  0  0  0  0
  3  8  1  0  0  0  0
  3 14  2  0  0  0  0
  4  9  1  0  0  0  0
  5 14  1  0  0  0  0
  5 21  1  0  0  0  0
  5 22  1  0  0  0  0
  6 14  1  0  0  0  0
  6 23  1  0  0  0  0
  6 24  1  0  0  0  0
  7  8  2  0  0  0  0
  7 10  1  0  0  0  0
  7 12  1  0  0  0  0
  8  9  1  0  0  0  0
  9 11  2  0  0  0  0
 10 13  2  0  0  0  0
 10 15  1  0  0  0  0
 11 13  1  0  0  0  0
 11 16  1  0  0  0  0
 12 17  1  0  0  0  0
 12 18  1  0  0  0  0
 12 19  1  0  0  0  0
 13 20  1  0  0  0  0
M  CHG  2   1  -1   4   1
M  END
> <PUBCHEM_COMPOUND_CID>
22156152

> <PUBCHEM_CONFORMER_RMSD>
0.6

> <PUBCHEM_CONFORMER_DIVERSEORDER>
1
4
2
3

> <PUBCHEM_MMFF94_PARTIAL_CHARGES>
21
1 -0.52
10 -0.15
11 -0.15
12 0.14
13 -0.15
14 0.55
15 0.15
16 0.15
2 -0.52
20 0.15
21 0.4
22 0.4
23 0.4
24 0.4
3 -0.63
4 0.91
5 -0.85
6 -0.85
7 -0.14
8 0.18
9 0.13

> <PUBCHEM_EFFECTIVE_ROTOR_COUNT>
2

> <PUBCHEM_PHARMACOPHORE_FEATURES>
7
1 1 acceptor
1 1 anion
1 2 acceptor
1 5 donor
1 6 donor
4 3 5 6 14 cation
6 7 8 9 10 11 13 rings

> <PUBCHEM_HEAVY_ATOM_COUNT>
14

> <PUBCHEM_ATOM_DEF_STEREO_COUNT>
0

> <PUBCHEM_ATOM_UDEF_STEREO_COUNT>
0

> <PUBCHEM_BOND_DEF_STEREO_COUNT>
0

> <PUBCHEM_BOND_UDEF_STEREO_COUNT>
0

> <PUBCHEM_ISOTOPIC_ATOM_COUNT>
0

> <PUBCHEM_COMPONENT_COUNT>
1

> <PUBCHEM_CACTVS_TAUTO_COUNT>
2

> <PUBCHEM_CONFORMER_ID>
0152137800000001

> <PUBCHEM_MMFF94_ENERGY>
49.967

> <PUBCHEM_FEATURE_SELFOVERLAP>
35.657

> <PUBCHEM_SHAPE_FINGERPRINT>
12423570 1 8208589299697544125
14993402 34 18263645232888456093
15076042 46 18188479190761687888
15775835 57 18341897385174213704
161256 15 18050303470062395421
16945 1 18187363246647072369
193761 8 17904203629028148981
20511035 2 17762311653310409016
20645476 183 17460335453492559534
20871998 184 18125450944887495422
21501502 16 18050565136655464897
27216 239 16552520469911201584
2748010 2 18046921385518056773
3250762 1 17832146026358075461
43471831 8 18333732399026317474
5084963 1 18058743523038339457
54338 74 17977925101806854409
7364860 26 17983862176944961831
81228 2 17980463874287394586

> <PUBCHEM_SHAPE_MULTIPOLES>
256.45
3.48
2.86
0.96
1.1
0.76
-0.11
-1.12
-0.69
-0.09
0.57
0.29
0.15
0.13

> <PUBCHEM_SHAPE_SELFOVERLAP>
536.906

> <PUBCHEM_SHAPE_VOLUME>
144.3

> <PUBCHEM_COORDINATE_TYPE>
2
5
10

$$$$
86083201
  -OEChem-01162405103D

 24 24  0     0  0  0  0  0  0999 V2000
    3.3980    0.8504   -0.8658 O   0  5  0  0  0  0  0  0  0  0  0  0
    2.9287    1.1779    1.2536 O   0  0  0  0  0  0  0  0  0  0  0  0
   -2.0683   -0.0007   -0.8106 N   0  0  0  0  0  0  0  0  0  0  0  0
    2.6776    0.6566    0.1416 N   0  3  0  0  0  0  0  0  0  0  0  0
   -4.1249    0.8980   -0.1707 N   0  0  0  0  0  0  0  0  0  0  0  0
   -2.6540    0.3827    1.4961 N   0  0  0  0  0  0  0  0  0  0  0  0
    0.2926    0.3392   -0.3375 C   0  0  0  0  0  0  0  0  0  0  0  0
   -0.8115   -0.5053   -0.4535 C   0  0  0  0  0  0  0  0  0  0  0  0
    1.5361   -0.1832    0.0186 C   0  0  0  0  0  0  0  0  0  0  0  0
   -0.6722   -1.8724   -0.2134 C   0  0  0  0  0  0  0  0  0  0  0  0
    0.1339    1.8055   -0.5961 C   0  0  0  0  0  0  0  0  0  0  0  0
    1.6753   -1.5503    0.2587 C   0  0  0  0  0  0  0  0  0  0  0  0
    0.5711   -2.3948    0.1424 C   0  0  0  0  0  0  0  0  0  0  0  0
   -2.8823    0.3965    0.1370 C   0  0  0  0  0  0  0  0  0  0  0  0
   -1.5258   -2.5395   -0.3016 H   0  0  0  0  0  0  0  0  0  0  0  0
    0.0175    2.3414    0.3515 H   0  0  0  0  0  0  0  0  0  0  0  0
    0.9944    2.2180   -1.1330 H   0  0  0  0  0  0  0  0  0  0  0  0
   -0.7318    2.0324   -1.2265 H   0  0  0  0  0  0  0  0  0  0  0  0
    2.6380   -1.9725    0.5367 H   0  0  0  0  0  0  0  0  0  0  0  0
    0.6796   -3.4593    0.3290 H   0  0  0  0  0  0  0  0  0  0  0  0
   -4.4365    0.9711   -1.1331 H   0  0  0  0  0  0  0  0  0  0  0  0
   -4.7648    1.2094    0.5517 H   0  0  0  0  0  0  0  0  0  0  0  0
   -1.7847    0.0446    1.8937 H   0  0  0  0  0  0  0  0  0  0  0  0
   -3.3563    0.7160    2.1476 H   0  0  0  0  0  0  0  0  0  0  0  0
  1  4  1  0  0  0  0
  2  4  2  0  0  0  0
  3  8  1  0  0  0  0
  3 14  2  0  0  0  0
  4  9  1  0  0  0  0
  5 14  1  0  0  0  0
  5 21  1  0  0  0  0
  5 22  1  0  0  0  0
  6 14  1  0  0  0  0
  6 23  1  0  0  0  0
  6 24  1  0  0  0  0
  7  8  2  0  0  0  0
  7  9  1  0  0  0  0
  7 11  1  0  0  0  0
  8 10  1  0  0  0  0
  9 12  2  0  0  0  0
 10 13  2  0  0  0  0
 10 15  1  0  0  0  0
 11 16  1  0  0  0  0
 11 17  1  0  0  0  0
 11 18  1  0  0  0  0
 12 13  1  0  0  0  0
 12 19  1  0  0  0  0
 13 20  1  0  0  0  0
M  CHG  2   1  -1   4   1
M  END
> <PUBCHEM_COMPOUND_CID>
86083201

> <PUBCHEM_CONFORMER_RMSD>
0.6

> <PUBCHEM_CONFORMER_DIVERSEORDER>
1
4
2
3

> <PUBCHEM_MMFF94_PARTIAL_CHARGES>
21
1 -0.52
10 -0.15
11 0.14
12 -0.15
13 -0.15
14 0.55
15 0.15
19 0.15
2 -0.52
20 0.15
21 0.4
22 0.4
23 0.4
24 0.4
3 -0.63
4 0.91
5 -0.85
6 -0.85
7 -0.14
8 0.18
9 0.13

> <PUBCHEM_EFFECTIVE_ROTOR_COUNT>
2

> <PUBCHEM_PHARMACOPHORE_FEATURES>
7
1 1 acceptor
1 1 anion
1 2 acceptor
1 5 donor
1 6 donor
4 3 5 6 14 cation
6 7 8 9 10 12 13 rings

> <PUBCHEM_HEAVY_ATOM_COUNT>
14

> <PUBCHEM_ATOM_DEF_STEREO_COUNT>
0

> <PUBCHEM_ATOM_UDEF_STEREO_COUNT>
0

> <PUBCHEM_BOND_DEF_STEREO_COUNT>
0

> <PUBCHEM_BOND_UDEF_STEREO_COUNT>
0

> <PUBCHEM_ISOTOPIC_ATOM_COUNT>
0

> <PUBCHEM_COMPONENT_COUNT>
1

> <PUBCHEM_CACTVS_TAUTO_COUNT>
2

> <PUBCHEM_CONFORMER_ID>
0521868100000001

> <PUBCHEM_MMFF94_ENERGY>
51.5224

> <PUBCHEM_FEATURE_SELFOVERLAP>
35.657

> <PUBCHEM_SHAPE_FINGERPRINT>
10219947 1 18334297543755090365
10980938 120 18409445847872628479
11471102 22 18190187793155479603
12346645 6 18338514136377174735
12382932 28 18335980943080257731
12491281 212 17203345406552108025
13172582 1 18261385693548919548
13380535 21 18409738378042918238
15309172 13 18335427884563099969
15775835 57 18272931613813028305
161256 15 18193840340575651670
16945 1 18334569174561276692
18186145 218 18060423520770591720
193761 8 17760643668554340948
20510252 161 17910393127772940074
20653085 51 16917079887712419467
21501502 16 17976824185841148477
21524375 3 18342735217329909854
23493267 7 17241044297488736036
2748010 2 18046051679914457844
276578 36 18411987948594061786
449060 62 18338239267234225501
528862 383 18261950756557834643
528886 8 18409444808210961426
53812653 166 18341045298048864168
63268167 104 18342174427945102267
7364860 26 18128532670122668054
81228 2 17832416871364847826

> <PUBCHEM_SHAPE_MULTIPOLES>
256.45
5.1
2.01
0.95
2.29
0.93
0.24
-2.47
0.64
-0.8
-0.06
0.05
-0.22
-0.03

> <PUBCHEM_SHAPE_SELFOVERLAP>
536.844

> <PUBCHEM_SHAPE_VOLUME>
144.4

> <PUBCHEM_COORDINATE_TYPE>
2
5
10

$$$$
44816894
  -OEChem-01162405103D

 65 69  0     0  0  0  0  0  0999 V2000
    0.5159   -0.0080    1.0703 O   0  0  0  0  0  0  0  0  0  0  0  0
   -6.5611   -0.2835    0.2111 N   0  0  0  0  0  0  0  0  0  0  0  0
   -8.7139   -0.0818   -1.7189 N   0  0  0  0  0  0  0  0  0  0  0  0
    0.0847    2.1065    0.1488 N   0  0  0  0  0  0  0  0  0  0  0  0
    4.9030    1.4995    0.1848 N   0  0  0  0  0  0  0  0  0  0  0  0
    4.0241   -0.6568   -0.0705 N   0  0  0  0  0  0  0  0  0  0  0  0
    6.3247   -0.3225    0.5644 N   0  0  0  0  0  0  0  0  0  0  0  0
    1.8995   -4.8850   -0.0398 N   0  0  0  0  0  0  0  0  0  0  0  0
   -6.7391    0.9231   -0.6069 C   0  0  0  0  0  0  0  0  0  0  0  0
   -7.8505   -0.9493    0.4370 C   0  0  0  0  0  0  0  0  0  0  0  0
   -7.4264    0.5833   -1.9317 C   0  0  0  0  0  0  0  0  0  0  0  0
   -8.5310   -1.2782   -0.8940 C   0  0  0  0  0  0  0  0  0  0  0  0
   -5.9141    0.0405    1.4809 C   0  0  0  0  0  0  0  0  0  0  0  0
   -4.4401    0.2594    1.2808 C   0  0  0  0  0  0  0  0  0  0  0  0
   -3.5915   -0.8328    1.0998 C   0  0  0  0  0  0  0  0  0  0  0  0
   -3.9213    1.5542    1.2761 C   0  0  0  0  0  0  0  0  0  0  0  0
   -2.2241   -0.6301    0.9140 C   0  0  0  0  0  0  0  0  0  0  0  0
   -2.5538    1.7568    1.0904 C   0  0  0  0  0  0  0  0  0  0  0  0
   -1.7052    0.6647    0.9092 C   0  0  0  0  0  0  0  0  0  0  0  0
   -0.2796    0.8766    0.7146 C   0  0  0  0  0  0  0  0  0  0  0  0
    1.3832    2.5973   -0.1332 C   0  0  0  0  0  0  0  0  0  0  0  0
    3.7810    2.3019   -0.1182 C   0  0  0  0  0  0  0  0  0  0  0  0
    2.5025    1.8182    0.1597 C   0  0  0  0  0  0  0  0  0  0  0  0
    3.9401    3.5648   -0.6887 C   0  0  0  0  0  0  0  0  0  0  0  0
    1.5423    3.8602   -0.7039 C   0  0  0  0  0  0  0  0  0  0  0  0
    2.8207    4.3438   -0.9816 C   0  0  0  0  0  0  0  0  0  0  0  0
    5.2975    4.1079   -0.9967 C   0  0  0  0  0  0  0  0  0  0  0  0
    5.0927    0.1059    0.2294 C   0  0  0  0  0  0  0  0  0  0  0  0
    4.2426   -1.9873   -0.0215 C   0  0  0  0  0  0  0  0  0  0  0  0
    3.0998   -2.8083   -0.3424 C   0  0  0  0  0  0  0  0  0  0  0  0
    5.4576   -2.5531    0.3074 C   0  0  0  0  0  0  0  0  0  0  0  0
    6.4727   -1.6633    0.5938 C   0  0  0  0  0  0  0  0  0  0  0  0
    2.1219   -2.3631   -1.2249 C   0  0  0  0  0  0  0  0  0  0  0  0
    2.9434   -4.0657    0.2184 C   0  0  0  0  0  0  0  0  0  0  0  0
    1.0329   -3.1775   -1.5155 C   0  0  0  0  0  0  0  0  0  0  0  0
    0.9691   -4.4183   -0.9024 C   0  0  0  0  0  0  0  0  0  0  0  0
   -5.7726    1.3770   -0.8511 H   1  0  0  0  0  0  0  0  0  0  0  0
   -7.3308    1.6777   -0.0708 H   1  0  0  0  0  0  0  0  0  0  0  0
   -8.5129   -0.3194    1.0462 H   1  0  0  0  0  0  0  0  0  0  0  0
   -7.6955   -1.8874    0.9836 H   1  0  0  0  0  0  0  0  0  0  0  0
   -7.5968    1.5069   -2.4959 H   1  0  0  0  0  0  0  0  0  0  0  0
   -6.7747   -0.0513   -2.5459 H   1  0  0  0  0  0  0  0  0  0  0  0
   -9.5125   -1.7227   -0.6957 H   1  0  0  0  0  0  0  0  0  0  0  0
   -7.9464   -2.0262   -1.4447 H   1  0  0  0  0  0  0  0  0  0  0  0
   -6.3832    0.9026    1.9741 H   0  0  0  0  0  0  0  0  0  0  0  0
   -6.0184   -0.7929    2.1898 H   0  0  0  0  0  0  0  0  0  0  0  0
   -9.1139   -0.3460   -2.6186 H   0  0  0  0  0  0  0  0  0  0  0  0
   -3.9838   -1.8464    1.1004 H   0  0  0  0  0  0  0  0  0  0  0  0
   -4.5705    2.4132    1.4243 H   0  0  0  0  0  0  0  0  0  0  0  0
   -1.5810   -1.4944    0.7689 H   0  0  0  0  0  0  0  0  0  0  0  0
   -2.1922    2.7799    1.1331 H   0  0  0  0  0  0  0  0  0  0  0  0
   -0.6551    2.7391   -0.1434 H   0  0  0  0  0  0  0  0  0  0  0  0
    2.4139    0.8714    0.6642 H   0  0  0  0  0  0  0  0  0  0  0  0
    0.6787    4.4779   -0.9368 H   0  0  0  0  0  0  0  0  0  0  0  0
    2.9267    5.3302   -1.4256 H   0  0  0  0  0  0  0  0  0  0  0  0
    5.7706    2.0085    0.3176 H   0  0  0  0  0  0  0  0  0  0  0  0
    5.2410    5.0623   -1.5317 H   0  0  0  0  0  0  0  0  0  0  0  0
    5.8557    3.4162   -1.6366 H   0  0  0  0  0  0  0  0  0  0  0  0
    5.8580    4.2832   -0.0726 H   0  0  0  0  0  0  0  0  0  0  0  0
    5.6495   -3.6181    0.3293 H   0  0  0  0  0  0  0  0  0  0  0  0
    7.4647   -2.0141    0.8579 H   0  0  0  0  0  0  0  0  0  0  0  0
    2.1842   -1.3911   -1.7077 H   0  0  0  0  0  0  0  0  0  0  0  0
    3.6457   -4.4824    0.9338 H   0  0  0  0  0  0  0  0  0  0  0  0
    0.2589   -2.8516   -2.2009 H   0  0  0  0  0  0  0  0  0  0  0  0
    0.1400   -5.0911   -1.0956 H   0  0  0  0  0  0  0  0  0  0  0  0
  1 20  2  0  0  0  0
  2  9  1  0  0  0  0
  2 10  1  0  0  0  0
  2 13  1  0  0  0  0
  3 11  1  0  0  0  0
  3 12  1  0  0  0  0
  3 47  1  0  0  0  0
  4 20  1  0  0  0  0
  4 21  1  0  0  0  0
  4 52  1  0  0  0  0
  5 22  1  0  0  0  0
  5 28  1  0  0  0  0
  5 56  1  0  0  0  0
  6 28  1  0  0  0  0
  6 29  2  0  0  0  0
  7 28  2  0  0  0  0
  7 32  1  0  0  0  0
  8 34  1  0  0  0  0
  8 36  2  0  0  0  0
  9 11  1  0  0  0  0
  9 37  1  0  0  0  0
  9 38  1  0  0  0  0
 10 12  1  0  0  0  0
 10 39  1  0  0  0  0
 10 40  1  0  0  0  0
 11 41  1  0  0  0  0
 11 42  1  0  0  0  0
 12 43  1  0  0  0  0
 12 44  1  0  0  0  0
 13 14  1  0  0  0  0
 13 45  1  0  0  0  0
 13 46  1  0  0  0  0
 14 15  2  0  0  0  0
 14 16  1  0  0  0  0
 15 17  1  0  0  0  0
 15 48  1  0  0  0  0
 16 18  2  0  0  0  0
 16 49  1  0  0  0  0
 17 19  2  0  0  0  0
 17 50  1  0  0  0  0
 18 19  1  0  0  0  0
 18 51  1  0  0  0  0
 19 20  1  0  0  0  0
 21 23  2  0  0  0  0
 21 25  1  0  0  0  0
 22 23  1  0  0  0  0
 22 24  2  0  0  0  0
 23 53  1  0  0  0  0
 24 26  1  0  0  0  0
 24 27  1  0  0  0  0
 25 26  2  0  0  0  0
 25 54  1  0  0  0  0
 26 55  1  0  0  0  0
 27 57  1  0  0  0  0
 27 58  1  0  0  0  0
 27 59  1  0  0  0  0
 29 30  1  0  0  0  0
 29 31  1  0  0  0  0
 30 33  1  0  0  0  0
 30 34  2  0  0  0  0
 31 32  2  0  0  0  0
 31 60  1  0  0  0  0
 32 61  1  0  0  0  0
 33 35  2  0  0  0  0
 33 62  1  0  0  0  0
 34 63  1  0  0  0  0
 35 36  1  0  0  0  0
 35 64  1  0  0  0  0
 36 65  1  0  0  0  0
M  ISO  8  37   2  38   2  39   2  40   2  41   2  42   2  43   2  44   2
M  END
> <PUBCHEM_COMPOUND_CID>
44816894

> <PUBCHEM_CONFORMER_RMSD>
1

> <PUBCHEM_CONFORMER_DIVERSEORDER>
1
46
158
133
35
113
111
90
63
155
37
71
103
75
41
84
20
70
40
148
161
82
107
60
151
105
146
47
86
110
67
29
81
44
112
100
143
56
91
72
157
36
85
130
87
61
108
31
54
137
27
42
162
129
165
65
119
50
131
83
109
55
45
106
128
49
116
16
89
144
80
58
38
95
96
154
114
64
121
126
98
69
21
140
153
164
115
135
159
88
97
138
152
147
120
79
166
134
99
18
62
160
68
101
163
74
92
132
93
32
73
26
142
150
10
9
141
77
104
3
34
136
125
102
43
122
17
156
94
33
118
169
11
167
39
59
51
12
5
66
124
28
168
2
139
78
4
52
22
13
14
48
123
57
145
76
8
23
117
30
19
53
15
127
25
7
149
24
6

> <PUBCHEM_MMFF94_PARTIAL_CHARGES>
51
1 -0.57
10 0.27
11 0.27
12 0.27
13 0.41
14 -0.14
15 -0.15
16 -0.15
17 -0.15
18 -0.15
19 0.09
2 -0.81
20 0.54
21 0.12
22 0.1
23 -0.15
24 -0.14
25 -0.15
26 -0.15
27 0.14
28 0.72
29 0.31
3 -0.9
31 -0.15
32 0.16
33 -0.15
34 0.16
35 -0.15
36 0.16
4 -0.55
47 0.36
48 0.15
49 0.15
5 -0.6
50 0.15
51 0.15
52 0.37
53 0.15
54 0.15
55 0.15
56 0.4
6 -0.62
60 0.15
61 0.15
62 0.15
63 0.15
64 0.15
65 0.15
7 -0.62
8 -0.62
9 0.27

> <PUBCHEM_EFFECTIVE_ROTOR_COUNT>
9.2

> <PUBCHEM_PHARMACOPHORE_FEATURES>
14
1 1 acceptor
1 2 cation
1 3 cation
1 3 donor
1 4 donor
1 5 donor
1 6 acceptor
1 8 acceptor
4 5 6 7 28 cation
6 14 15 16 17 18 19 rings
6 2 3 9 10 11 12 rings
6 21 22 23 24 25 26 rings
6 6 7 28 29 31 32 rings
6 8 30 33 34 35 36 rings

> <PUBCHEM_HEAVY_ATOM_COUNT>
36

> <PUBCHEM_ATOM_DEF_STEREO_COUNT>
0

> <PUBCHEM_ATOM_UDEF_STEREO_COUNT>
0

> <PUBCHEM_BOND_DEF_STEREO_COUNT>
0

> <PUBCHEM_BOND_UDEF_STEREO_COUNT>
0

> <PUBCHEM_ISOTOPIC_ATOM_COUNT>
8

> <PUBCHEM_COMPONENT_COUNT>
1

> <PUBCHEM_CACTVS_TAUTO_COUNT>
6

> <PUBCHEM_CONFORMER_ID>
02ABD9FE00000001

> <PUBCHEM_MMFF94_ENERGY>
118.2517

> <PUBCHEM_FEATURE_SELFOVERLAP>
71.05

> <PUBCHEM_SHAPE_FINGERPRINT>
11135926 11 18268723860661154417
11374522 175 18336543799415388707
11476731 47 18336550525276022069
11719270 70 18340486759037548457
11828532 37 17386018298877668427
11973864 48 18041284383589172819
12202916 173 18187927245058201306
12857493 111 18335698291758327221
1361 2 18411425016342788402
14117953 113 18411425012390634438
14725015 67 18188203209723155130
15119646 104 18273501157005304049
15264996 74 17843684615672263614
15328829 1 17561073705683685711
15400415 2 17905339772554097992
15444296 7 17917703609104134831
15483637 11 17977390756658222666
15484559 13 18338811099665305566
1577012 14 18271820038050224369
15927050 60 18051707822059300636
17852330 134 18194386816169072045
18365409 1 17986947638780700334
21133410 58 18334007311277467947
23559900 14 18411135866259650169
24771293 8 18200597994900905306
354706 109 18339908424843875370
3633792 109 18336261268018875329
394071 54 18270136607878960315
397830 11 11959729383156667025
4149490 64 18334866060888493835
4403749 210 17688314903462593128
5309563 4 18265903445678917416
6004065 56 18410572872828982746
9555976 147 17273144488254762089

> <PUBCHEM_SHAPE_MULTIPOLES>
700.13
21.27
6.09
1.38
46.33
1.29
-0.25
2.01
-4.27
-12.79
-2.37
2.19
-0.03
-1.43

> <PUBCHEM_SHAPE_SELFOVERLAP>
1525.73

> <PUBCHEM_SHAPE_VOLUME>
377.1

> <PUBCHEM_COORDINATE_TYPE>
2
5
10

$$$$
25235771
  -OEChem-01162405103D

 68 72  0     0  0  0  0  0  0999 V2000
   -0.8157    0.0027   -1.1121 O   0  0  0  0  0  0  0  0  0  0  0  0
    6.3194   -0.2324   -0.4953 N   0  0  0  0  0  0  0  0  0  0  0  0
    8.5726   -0.0236    1.3041 N   0  0  0  0  0  0  0  0  0  0  0  0
   -0.3712    2.1165   -0.1957 N   0  0  0  0  0  0  0  0  0  0  0  0
   -5.1851    1.4780   -0.0887 N   0  0  0  0  0  0  0  0  0  0  0  0
   -4.2842   -0.6729    0.1290 N   0  0  0  0  0  0  0  0  0  0  0  0
   -6.6060   -0.3523   -0.4308 N   0  0  0  0  0  0  0  0  0  0  0  0
   -2.1289   -4.8832    0.0029 N   0  0  0  0  0  0  0  0  0  0  0  0
    7.6002   -0.8823   -0.7993 C   0  0  0  0  0  0  0  0  0  0  0  0
    6.5358    0.9697    0.3190 C   0  0  0  0  0  0  0  0  0  0  0  0
    8.3575   -1.2249    0.4883 C   0  0  0  0  0  0  0  0  0  0  0  0
    7.2919    0.6266    1.6072 C   0  0  0  0  0  0  0  0  0  0  0  0
    5.5991    0.0956   -1.7240 C   0  0  0  0  0  0  0  0  0  0  0  0
    9.2914   -0.3529    2.5334 C   0  0  0  0  0  0  0  0  0  0  0  0
    4.1292    0.3041   -1.4739 C   0  0  0  0  0  0  0  0  0  0  0  0
    3.2935   -0.7943   -1.2718 C   0  0  0  0  0  0  0  0  0  0  0  0
    3.6026    1.5955   -1.4467 C   0  0  0  0  0  0  0  0  0  0  0  0
    1.9313   -0.6013   -1.0425 C   0  0  0  0  0  0  0  0  0  0  0  0
    2.2404    1.7885   -1.2175 C   0  0  0  0  0  0  0  0  0  0  0  0
    1.4046    0.6901   -1.0153 C   0  0  0  0  0  0  0  0  0  0  0  0
   -0.0159    0.8915   -0.7773 C   0  0  0  0  0  0  0  0  0  0  0  0
   -1.6639    2.5972    0.1276 C   0  0  0  0  0  0  0  0  0  0  0  0
   -4.0592    2.2864    0.1826 C   0  0  0  0  0  0  0  0  0  0  0  0
   -2.7865    1.8121   -0.1351 C   0  0  0  0  0  0  0  0  0  0  0  0
   -4.2091    3.5460    0.7629 C   0  0  0  0  0  0  0  0  0  0  0  0
   -1.8140    3.8567    0.7079 C   0  0  0  0  0  0  0  0  0  0  0  0
   -3.0866    4.3312    1.0255 C   0  0  0  0  0  0  0  0  0  0  0  0
   -5.5603    4.0787    1.1130 C   0  0  0  0  0  0  0  0  0  0  0  0
   -5.3672    0.0834   -0.1321 C   0  0  0  0  0  0  0  0  0  0  0  0
   -4.4943   -2.0047    0.0787 C   0  0  0  0  0  0  0  0  0  0  0  0
   -3.3359   -2.8188    0.3583 C   0  0  0  0  0  0  0  0  0  0  0  0
   -5.7149   -2.5777   -0.2151 C   0  0  0  0  0  0  0  0  0  0  0  0
   -6.7449   -1.6940   -0.4639 C   0  0  0  0  0  0  0  0  0  0  0  0
   -2.3338   -2.3714    1.2121 C   0  0  0  0  0  0  0  0  0  0  0  0
   -3.1873   -4.0711   -0.2160 C   0  0  0  0  0  0  0  0  0  0  0  0
   -1.2294   -3.1784    1.4621 C   0  0  0  0  0  0  0  0  0  0  0  0
   -1.1751   -4.4146    0.8385 C   0  0  0  0  0  0  0  0  0  0  0  0
    8.2232   -0.2394   -1.4361 H   0  0  0  0  0  0  0  0  0  0  0  0
    7.4238   -1.8149   -1.3490 H   0  0  0  0  0  0  0  0  0  0  0  0
    5.5798    1.4170    0.6131 H   0  0  0  0  0  0  0  0  0  0  0  0
    7.0947    1.7308   -0.2424 H   0  0  0  0  0  0  0  0  0  0  0  0
    7.8012   -1.9865    1.0516 H   0  0  0  0  0  0  0  0  0  0  0  0
    9.3242   -1.6639    0.2132 H   0  0  0  0  0  0  0  0  0  0  0  0
    7.4708    1.5568    2.1602 H   0  0  0  0  0  0  0  0  0  0  0  0
    6.6666   -0.0159    2.2422 H   0  0  0  0  0  0  0  0  0  0  0  0
    5.6783   -0.7316   -2.4437 H   0  0  0  0  0  0  0  0  0  0  0  0
    6.0389    0.9626   -2.2357 H   0  0  0  0  0  0  0  0  0  0  0  0
    9.4894    0.5529    3.1171 H   0  0  0  0  0  0  0  0  0  0  0  0
   10.2660   -0.7965    2.3015 H   0  0  0  0  0  0  0  0  0  0  0  0
    8.7344   -1.0548    3.1646 H   0  0  0  0  0  0  0  0  0  0  0  0
    3.6921   -1.8052   -1.2898 H   1  0  0  0  0  0  0  0  0  0  0  0
    4.2416    2.4592   -1.6110 H   1  0  0  0  0  0  0  0  0  0  0  0
    1.2984   -1.4704   -0.8821 H   1  0  0  0  0  0  0  0  0  0  0  0
    1.8712    2.8094   -1.2441 H   1  0  0  0  0  0  0  0  0  0  0  0
    0.3727    2.7531    0.0766 H   0  0  0  0  0  0  0  0  0  0  0  0
   -2.7068    0.8680   -0.6461 H   0  0  0  0  0  0  0  0  0  0  0  0
   -0.9478    4.4791    0.9174 H   0  0  0  0  0  0  0  0  0  0  0  0
   -3.1855    5.3151    1.4763 H   0  0  0  0  0  0  0  0  0  0  0  0
   -6.0596    1.9818   -0.1928 H   0  0  0  0  0  0  0  0  0  0  0  0
   -5.4943    5.0318    1.6494 H   0  0  0  0  0  0  0  0  0  0  0  0
   -6.0945    3.3812    1.7668 H   0  0  0  0  0  0  0  0  0  0  0  0
   -6.1493    4.2533    0.2066 H   0  0  0  0  0  0  0  0  0  0  0  0
   -5.8995   -3.6441   -0.2376 H   0  0  0  0  0  0  0  0  0  0  0  0
   -7.7422   -2.0507   -0.6987 H   0  0  0  0  0  0  0  0  0  0  0  0
   -2.3885   -1.4031    1.7032 H   0  0  0  0  0  0  0  0  0  0  0  0
   -3.9086   -4.4887   -0.9116 H   0  0  0  0  0  0  0  0  0  0  0  0
   -0.4365   -2.8506    2.1246 H   0  0  0  0  0  0  0  0  0  0  0  0
   -0.3348   -5.0816    1.0005 H   0  0  0  0  0  0  0  0  0  0  0  0
  1 21  2  0  0  0  0
  2  9  1  0  0  0  0
  2 10  1  0  0  0  0
  2 13  1  0  0  0  0
  3 11  1  0  0  0  0
  3 12  1  0  0  0  0
  3 14  1  0  0  0  0
  4 21  1  0  0  0  0
  4 22  1  0  0  0  0
  4 55  1  0  0  0  0
  5 23  1  0  0  0  0
  5 29  1  0  0  0  0
  5 59  1  0  0  0  0
  6 29  1  0  0  0  0
  6 30  2  0  0  0  0
  7 29  2  0  0  0  0
  7 33  1  0  0  0  0
  8 35  1  0  0  0  0
  8 37  2  0  0  0  0
  9 11  1  0  0  0  0
  9 38  1  0  0  0  0
  9 39  1  0  0  0  0
 10 12  1  0  0  0  0
 10 40  1  0  0  0  0
 10 41  1  0  0  0  0
 11 42  1  0  0  0  0
 11 43  1  0  0  0  0
 12 44  1  0  0  0  0
 12 45  1  0  0  0  0
 13 15  1  0  0  0  0
 13 46  1  0  0  0  0
 13 47  1  0  0  0  0
 14 48  1  0  0  0  0
 14 49  1  0  0  0  0
 14 50  1  0  0  0  0
 15 16  2  0  0  0  0
 15 17  1  0  0  0  0
 16 18  1  0  0  0  0
 16 51  1  0  0  0  0
 17 19  2  0  0  0  0
 17 52  1  0  0  0  0
 18 20  2  0  0  0  0
 18 53  1  0  0  0  0
 19 20  1  0  0  0  0
 19 54  1  0  0  0  0
 20 21  1  0  0  0  0
 22 24  2  0  0  0  0
 22 26  1  0  0  0  0
 23 24  1  0  0  0  0
 23 25  2  0  0  0  0
 24 56  1  0  0  0  0
 25 27  1  0  0  0  0
 25 28  1  0  0  0  0
 26 27  2  0  0  0  0
 26 57  1  0  0  0  0
 27 58  1  0  0  0  0
 28 60  1  0  0  0  0
 28 61  1  0  0  0  0
 28 62  1  0  0  0  0
 30 31  1  0  0  0  0
 30 32  1  0  0  0  0
 31 34  1  0  0  0  0
 31 35  2  0  0  0  0
 32 33  2  0  0  0  0
 32 63  1  0  0  0  0
 33 64  1  0  0  0  0
 34 36  2  0  0  0  0
 34 65  1  0  0  0  0
 35 66  1  0  0  0  0
 36 37  1  0  0  0  0
 36 67  1  0  0  0  0
 37 68  1  0  0  0  0
M  ISO  4  51   2  52   2  53   2  54   2
M  END
> <PUBCHEM_COMPOUND_CID>
25235771

> <PUBCHEM_CONFORMER_RMSD>
1

> <PUBCHEM_CONFORMER_DIVERSEORDER>
1
97
61
150
141
31
125
112
126
157
137
77
81
153
59
29
98
48
163
104
147
42
88
62
166
160
172
49
24
43
152
82
85
171
154
46
156
51
54
140
103
64
68
116
17
41
71
89
56
164
69
95
170
165
105
84
102
80
132
28
139
53
92
123
23
155
86
178
115
124
145
129
45
72
52
19
149
143
176
60
87
91
107
173
34
93
44
138
22
127
113
83
38
47
118
90
65
70
136
151
78
168
30
33
101
100
21
133
148
36
169
114
57
63
75
20
159
121
144
10
146
3
134
37
108
25
130
74
110
158
122
111
58
35
167
120
174
14
18
13
162
6
142
50
128
26
175
12
76
16
117
39
11
106
40
4
5
15
73
119
135
2
96
131
55
8
94
67
66
79
9
177
32
99
109
27
161
7

> <PUBCHEM_MMFF94_PARTIAL_CHARGES>
51
1 -0.57
10 0.27
11 0.27
12 0.27
13 0.41
14 0.27
15 -0.14
16 -0.15
17 -0.15
18 -0.15
19 -0.15
2 -0.81
20 0.09
21 0.54
22 0.12
23 0.1
24 -0.15
25 -0.14
26 -0.15
27 -0.15
28 0.14
29 0.72
3 -0.81
30 0.31
32 -0.15
33 0.16
34 -0.15
35 0.16
36 -0.15
37 0.16
4 -0.55
5 -0.6
51 0.15
52 0.15
53 0.15
54 0.15
55 0.37
56 0.15
57 0.15
58 0.15
59 0.4
6 -0.62
63 0.15
64 0.15
65 0.15
66 0.15
67 0.15
68 0.15
7 -0.62
8 -0.62
9 0.27

> <PUBCHEM_EFFECTIVE_ROTOR_COUNT>
9.2

> <PUBCHEM_PHARMACOPHORE_FEATURES>
13
1 1 acceptor
1 2 cation
1 3 cation
1 4 donor
1 5 donor
1 6 acceptor
1 8 acceptor
4 5 6 7 29 cation
6 15 16 17 18 19 20 rings
6 2 3 9 10 11 12 rings
6 22 23 24 25 26 27 rings
6 6 7 29 30 32 33 rings
6 8 31 34 35 36 37 rings

> <PUBCHEM_HEAVY_ATOM_COUNT>
37

> <PUBCHEM_ATOM_DEF_STEREO_COUNT>
0

> <PUBCHEM_ATOM_UDEF_STEREO_COUNT>
0

> <PUBCHEM_BOND_DEF_STEREO_COUNT>
0

> <PUBCHEM_BOND_UDEF_STEREO_COUNT>
0

> <PUBCHEM_ISOTOPIC_ATOM_COUNT>
4

> <PUBCHEM_COMPONENT_COUNT>
1

> <PUBCHEM_CACTVS_TAUTO_COUNT>
6

> <PUBCHEM_CONFORMER_ID>
0181113B00000001

> <PUBCHEM_MMFF94_ENERGY>
124.4766

> <PUBCHEM_FEATURE_SELFOVERLAP>
65.975

> <PUBCHEM_SHAPE_FINGERPRINT>
10254770 206 18336823186199216810
10290309 65 17831589669391223437
11136131 41 17615689974373003036
12202916 173 18201439216545492903
12498461 61 18187918440892260874
12788726 201 18409173229408840547
14461889 52 18131069321268561484
14659021 117 18413389852343570049
14725015 67 18341055229036606375
14747282 305 17532644630389964882
15021287 119 16732991915981058508
15183329 4 17603304882086671854
15274700 242 18261397728643505881
15320294 125 18113620101231360991
15328829 1 17530956999761673408
15351339 4 18333726906480648651
15400415 2 17907310849078914717
15927050 60 18124889954578611509
16112460 7 18113897118227359706
18738133 686 18042669634632123522
19611394 137 18201717379886140120
20775438 99 17120550223657994823
23559900 14 18124034800503753853
3383291 50 18409453608926732747
397830 11 17989486325630704916
4073 2 18341056238158697004
42767 46 18040427807283346354
4616759 239 17846499175711964201
5080951 261 18261660524316738492
5085150 59 18411419522769023438
6376802 137 17918003788710918225

> <PUBCHEM_SHAPE_MULTIPOLES>
720.71
23.31
5.93
1.56
52.58
1.36
-0.35
2.31
-7.69
-13.78
-2.32
3.43
-0.1
-1.63

> <PUBCHEM_SHAPE_SELFOVERLAP>
1565.884

> <PUBCHEM_SHAPE_VOLUME>
390.8

> <PUBCHEM_COORDINATE_TYPE>
2
5
10

$$$$
146014488
  -OEChem-01162405103D

 74 78  0     0  0  0  0  0  0999 V2000
  -10.3892    0.0837   -3.5808 O   0  0  0  0  0  0  0  0  0  0  0  0
  -10.0168   -1.9550   -2.6403 O   0  0  0  0  0  0  0  0  0  0  0  0
    2.0285    0.2991    1.2826 O   0  0  0  0  0  0  0  0  0  0  0  0
   -7.4616   -0.0701    0.2232 N   0  0  0  0  0  0  0  0  0  0  0  0
   -5.0447    0.4103    1.7355 N   0  0  0  0  0  0  0  0  0  0  0  0
    1.6844    2.3364    0.1708 N   0  0  0  0  0  0  0  0  0  0  0  0
    6.3118    1.0547   -0.5588 N   0  0  0  0  0  0  0  0  0  0  0  0
    5.1486   -0.9682   -0.3565 N   0  0  0  0  0  0  0  0  0  0  0  0
    7.5516   -0.8981   -0.1896 N   0  0  0  0  0  0  0  0  0  0  0  0
    2.5762   -4.8153    0.6311 N   0  0  0  0  0  0  0  0  0  0  0  0
   -6.2129    0.3242   -0.4404 C   0  0  0  0  0  0  0  0  0  0  0  0
   -7.1741   -0.8123    1.4567 C   0  0  0  0  0  0  0  0  0  0  0  0
   -5.3321    1.1521    0.5018 C   0  0  0  0  0  0  0  0  0  0  0  0
   -6.2933    0.0155    2.3989 C   0  0  0  0  0  0  0  0  0  0  0  0
   -8.2994   -0.8617   -0.6755 C   0  0  0  0  0  0  0  0  0  0  0  0
   -4.2075    1.2024    2.6343 C   0  0  0  0  0  0  0  0  0  0  0  0
   -8.9690    0.0403   -1.7081 C   0  0  0  0  0  0  0  0  0  0  0  0
   -2.7676    1.2139    2.1944 C   0  0  0  0  0  0  0  0  0  0  0  0
   -2.1289    2.4248    1.9273 C   0  0  0  0  0  0  0  0  0  0  0  0
   -2.0722    0.0129    2.0542 C   0  0  0  0  0  0  0  0  0  0  0  0
   -9.8311   -0.7475   -2.6635 C   0  0  0  0  0  0  0  0  0  0  0  0
   -0.7949    2.4347    1.5200 C   0  0  0  0  0  0  0  0  0  0  0  0
   -0.7382    0.0228    1.6469 C   0  0  0  0  0  0  0  0  0  0  0  0
   -0.0995    1.2337    1.3799 C   0  0  0  0  0  0  0  0  0  0  0  0
    1.2915    1.2432    0.9553 C   0  0  0  0  0  0  0  0  0  0  0  0
    2.9532    2.6008   -0.4010 C   0  0  0  0  0  0  0  0  0  0  0  0
    4.0066    1.7080   -0.2052 C   0  0  0  0  0  0  0  0  0  0  0  0
    5.2564    1.9697   -0.7668 C   0  0  0  0  0  0  0  0  0  0  0  0
    3.1493    3.7555   -1.1586 C   0  0  0  0  0  0  0  0  0  0  0  0
    5.4524    3.1245   -1.5243 C   0  0  0  0  0  0  0  0  0  0  0  0
    4.3989    4.0174   -1.7202 C   0  0  0  0  0  0  0  0  0  0  0  0
    6.7804    3.4300   -2.1369 C   0  0  0  0  0  0  0  0  0  0  0  0
    6.3386   -0.3379   -0.3584 C   0  0  0  0  0  0  0  0  0  0  0  0
    5.2110   -2.3018   -0.1623 C   0  0  0  0  0  0  0  0  0  0  0  0
    3.9377   -2.9813   -0.1610 C   0  0  0  0  0  0  0  0  0  0  0  0
    6.3896   -2.9953    0.0228 C   0  0  0  0  0  0  0  0  0  0  0  0
    7.5403   -2.2339   -0.0005 C   0  0  0  0  0  0  0  0  0  0  0  0
    2.8694   -2.5023   -0.9110 C   0  0  0  0  0  0  0  0  0  0  0  0
    3.7415   -4.1315    0.5863 C   0  0  0  0  0  0  0  0  0  0  0  0
    1.6546   -3.1787   -0.8913 C   0  0  0  0  0  0  0  0  0  0  0  0
    1.5604   -4.3196   -0.1109 C   0  0  0  0  0  0  0  0  0  0  0  0
   -5.6542   -0.5580   -0.7820 H   0  0  0  0  0  0  0  0  0  0  0  0
   -6.4104    0.9440   -1.3206 H   0  0  0  0  0  0  0  0  0  0  0  0
   -6.6806   -1.7677    1.2318 H   0  0  0  0  0  0  0  0  0  0  0  0
   -8.1100   -1.0428    1.9801 H   0  0  0  0  0  0  0  0  0  0  0  0
   -4.4030    1.3867   -0.0309 H   0  0  0  0  0  0  0  0  0  0  0  0
   -5.8301    2.1061    0.7234 H   0  0  0  0  0  0  0  0  0  0  0  0
   -6.8480    0.8983    2.7449 H   0  0  0  0  0  0  0  0  0  0  0  0
   -6.0691   -0.5965    3.2811 H   0  0  0  0  0  0  0  0  0  0  0  0
   -9.0983   -1.3540   -0.1043 H   0  0  0  0  0  0  0  0  0  0  0  0
   -7.7295   -1.6655   -1.1600 H   0  0  0  0  0  0  0  0  0  0  0  0
   -4.5993    2.2214    2.7533 H   0  0  0  0  0  0  0  0  0  0  0  0
   -4.2106    0.7641    3.6422 H   0  0  0  0  0  0  0  0  0  0  0  0
   -9.6046    0.7786   -1.2053 H   0  0  0  0  0  0  0  0  0  0  0  0
   -8.2291    0.5662   -2.3192 H   0  0  0  0  0  0  0  0  0  0  0  0
   -2.6566    3.3681    2.0399 H   0  0  0  0  0  0  0  0  0  0  0  0
   -2.5546   -0.9384    2.2632 H   0  0  0  0  0  0  0  0  0  0  0  0
   -0.3311    3.4038    1.3627 H   0  0  0  0  0  0  0  0  0  0  0  0
   -0.2166   -0.9249    1.5399 H   0  0  0  0  0  0  0  0  0  0  0  0
  -10.9559   -0.4020   -4.2174 H   0  0  0  0  0  0  0  0  0  0  0  0
    0.9833    3.0291   -0.0764 H   0  0  0  0  0  0  0  0  0  0  0  0
    3.9043    0.8467    0.4325 H   0  0  0  0  0  0  0  0  0  0  0  0
    2.3371    4.4601   -1.3185 H   0  0  0  0  0  0  0  0  0  0  0  0
    4.5345    4.9222   -2.3068 H   0  0  0  0  0  0  0  0  0  0  0  0
    7.2433    1.4462   -0.6518 H   0  0  0  0  0  0  0  0  0  0  0  0
    7.5246    3.6268   -1.3583 H   0  0  0  0  0  0  0  0  0  0  0  0
    6.7366    4.3161   -2.7797 H   0  0  0  0  0  0  0  0  0  0  0  0
    7.1189    2.5980   -2.7635 H   0  0  0  0  0  0  0  0  0  0  0  0
    6.4529   -4.0674    0.1583 H   0  0  0  0  0  0  0  0  0  0  0  0
    8.5152   -2.6913    0.1308 H   0  0  0  0  0  0  0  0  0  0  0  0
    2.9544   -1.6102   -1.5266 H   0  0  0  0  0  0  0  0  0  0  0  0
    4.5129   -4.5615    1.2177 H   0  0  0  0  0  0  0  0  0  0  0  0
    0.8084   -2.8242   -1.4687 H   0  0  0  0  0  0  0  0  0  0  0  0
    0.6345   -4.8831   -0.0609 H   0  0  0  0  0  0  0  0  0  0  0  0
  1 21  1  0  0  0  0
  1 60  1  0  0  0  0
  2 21  2  0  0  0  0
  3 25  2  0  0  0  0
  4 11  1  0  0  0  0
  4 12  1  0  0  0  0
  4 15  1  0  0  0  0
  5 13  1  0  0  0  0
  5 14  1  0  0  0  0
  5 16  1  0  0  0  0
  6 25  1  0  0  0  0
  6 26  1  0  0  0  0
  6 61  1  0  0  0  0
  7 28  1  0  0  0  0
  7 33  1  0  0  0  0
  7 65  1  0  0  0  0
  8 33  1  0  0  0  0
  8 34  2  0  0  0  0
  9 33  2  0  0  0  0
  9 37  1  0  0  0  0
 10 39  1  0  0  0  0
 10 41  2  0  0  0  0
 11 13  1  0  0  0  0
 11 42  1  0  0  0  0
 11 43  1  0  0  0  0
 12 14  1  0  0  0  0
 12 44  1  0  0  0  0
 12 45  1  0  0  0  0
 13 46  1  0  0  0  0
 13 47  1  0  0  0  0
 14 48  1  0  0  0  0
 14 49  1  0  0  0  0
 15 17  1  0  0  0  0
 15 50  1  0  0  0  0
 15 51  1  0  0  0  0
 16 18  1  0  0  0  0
 16 52  1  0  0  0  0
 16 53  1  0  0  0  0
 17 21  1  0  0  0  0
 17 54  1  0  0  0  0
 17 55  1  0  0  0  0
 18 19  2  0  0  0  0
 18 20  1  0  0  0  0
 19 22  1  0  0  0  0
 19 56  1  0  0  0  0
 20 23  2  0  0  0  0
 20 57  1  0  0  0  0
 22 24  2  0  0  0  0
 22 58  1  0  0  0  0
 23 24  1  0  0  0  0
 23 59  1  0  0  0  0
 24 25  1  0  0  0  0
 26 27  2  0  0  0  0
 26 29  1  0  0  0  0
 27 28  1  0  0  0  0
 27 62  1  0  0  0  0
 28 30  2  0  0  0  0
 29 31  2  0  0  0  0
 29 63  1  0  0  0  0
 30 31  1  0  0  0  0
 30 32  1  0  0  0  0
 31 64  1  0  0  0  0
 32 66  1  0  0  0  0
 32 67  1  0  0  0  0
 32 68  1  0  0  0  0
 34 35  1  0  0  0  0
 34 36  1  0  0  0  0
 35 38  1  0  0  0  0
 35 39  2  0  0  0  0
 36 37  2  0  0  0  0
 36 69  1  0  0  0  0
 37 70  1  0  0  0  0
 38 40  2  0  0  0  0
 38 71  1  0  0  0  0
 39 72  1  0  0  0  0
 40 41  1  0  0  0  0
 40 73  1  0  0  0  0
 41 74  1  0  0  0  0
M  END
> <PUBCHEM_COMPOUND_CID>
146014488

> <PUBCHEM_CONFORMER_RMSD>
1.2

> <PUBCHEM_CONFORMER_DIVERSEORDER>
1
60
55
42
52
33
53
23
3
47
30
32
39
59
25
31
15
40
21
43
28
51
38
44
58
17
5
14
18
49
48
24
54
26
12
45
29
46
19
22
11
9
27
16
35
56
2
36
4
50
8
20
13
37
41
57
34
10
6
7

> <PUBCHEM_MMFF94_PARTIAL_CHARGES>
56
1 -0.65
10 -0.62
11 0.27
12 0.27
13 0.27
14 0.27
15 0.27
16 0.41
17 0.06
18 -0.14
19 -0.15
2 -0.57
20 -0.15
21 0.66
22 -0.15
23 -0.15
24 0.09
25 0.54
26 0.12
27 -0.15
28 0.1
29 -0.15
3 -0.57
30 -0.14
31 -0.15
32 0.14
33 0.72
34 0.31
36 -0.15
37 0.16
38 -0.15
39 0.16
4 -0.81
40 -0.15
41 0.16
5 -0.81
56 0.15
57 0.15
58 0.15
59 0.15
6 -0.55
60 0.5
61 0.37
62 0.15
63 0.15
64 0.15
65 0.4
69 0.15
7 -0.6
70 0.15
71 0.15
72 0.15
73 0.15
74 0.15
8 -0.62
9 -0.62

> <PUBCHEM_EFFECTIVE_ROTOR_COUNT>
12.2

> <PUBCHEM_PHARMACOPHORE_FEATURES>
16
1 1 acceptor
1 10 acceptor
1 2 acceptor
1 3 acceptor
1 4 cation
1 5 cation
1 6 donor
1 7 donor
1 8 acceptor
3 1 2 21 anion
4 7 8 9 33 cation
6 10 35 38 39 40 41 rings
6 18 19 20 22 23 24 rings
6 26 27 28 29 30 31 rings
6 4 5 11 12 13 14 rings
6 8 9 33 34 36 37 rings

> <PUBCHEM_HEAVY_ATOM_COUNT>
41

> <PUBCHEM_ATOM_DEF_STEREO_COUNT>
0

> <PUBCHEM_ATOM_UDEF_STEREO_COUNT>
0

> <PUBCHEM_BOND_DEF_STEREO_COUNT>
0

> <PUBCHEM_BOND_UDEF_STEREO_COUNT>
0

> <PUBCHEM_ISOTOPIC_ATOM_COUNT>
0

> <PUBCHEM_COMPONENT_COUNT>
1

> <PUBCHEM_CACTVS_TAUTO_COUNT>
-1

> <PUBCHEM_CONFORMER_ID>
08B4011800000001

> <PUBCHEM_MMFF94_ENERGY>
127.0339

> <PUBCHEM_FEATURE_SELFOVERLAP>
81.258

> <PUBCHEM_SHAPE_FINGERPRINT>
10162869 55 18411980265435704306
10677394 325 18342738567715442647
11135926 11 18267040490910096273
11409948 41 18410851040612452902
11973864 48 17968391147681345803
12013929 112 14201400430901355626
12202916 173 18041290864356848978
12522641 126 18412269428219128664
13383668 362 12462990187569364585
1361 2 18337409162489807018
13627175 4 17489309737665580195
14117953 113 18336842931408218150
14359421 15 17703216417956958935
150020 25 17603303774206382621
15705408 1 18048910436254239276
15807756 48 18271236240852906647
17852330 134 18263077714029179445
17852330 31 10591752234841606805
20737093 15 18337381725278858239
21133410 171 16882984921705949018
21133410 58 18187648024791614602
25242607 90 15912757410993643797
3383291 50 15410897401437745365
42767 23 18059282190201425703
44426701 97 14620791630417924840
44880568 143 16371296648787345445
5309563 4 18046925784054918496
5874358 3 17846492626376849621
6201320 221 18341887446978898823
9555976 147 17414731869007398104

> <PUBCHEM_SHAPE_MULTIPOLES>
791.29
29.74
5.63
2.64
72.42
2.93
-0.81
7.23
-24.36
-14.73
-1.66
8.61
-1.09
-5.61

> <PUBCHEM_SHAPE_SELFOVERLAP>
1709.796

> <PUBCHEM_SHAPE_VOLUME>
430.4

> <PUBCHEM_COORDINATE_TYPE>
2
5
10

$$$$
71749455
  -OEChem-01162405103D

 68 72  0     0  0  0  0  0  0999 V2000
    0.7077    1.4704   -0.7194 O   0  0  0  0  0  0  0  0  0  0  0  0
    7.7901    0.7901    0.1197 N   0  0  0  0  0  0  0  0  0  0  0  0
   10.1238   -0.8088   -0.4761 N   0  0  0  0  0  0  0  0  0  0  0  0
    0.8450   -0.6453    0.2862 N   0  0  0  0  0  0  0  0  0  0  0  0
   -4.4030   -2.5865   -0.2193 N   0  0  0  0  0  0  0  0  0  0  0  0
   -5.6298   -0.5917   -0.1628 N   0  0  0  0  0  0  0  0  0  0  0  0
   -6.7342   -2.7203   -0.4019 N   0  0  0  0  0  0  0  0  0  0  0  0
   -7.5100    3.4304    1.0832 N   0  0  0  0  0  0  0  0  0  0  0  0
    7.8574   -0.6285    0.4915 C   0  0  0  0  0  0  0  0  0  0  0  0
    9.1342    1.3799    0.1048 C   0  0  0  0  0  0  0  0  0  0  0  0
    8.7795   -1.3983   -0.4602 C   0  0  0  0  0  0  0  0  0  0  0  0
   10.0574    0.6102   -0.8461 C   0  0  0  0  0  0  0  0  0  0  0  0
    6.9112    1.5238    1.0282 C   0  0  0  0  0  0  0  0  0  0  0  0
   11.0015   -1.5422   -1.3862 C   0  0  0  0  0  0  0  0  0  0  0  0
    5.4577    1.2784    0.7224 C   0  0  0  0  0  0  0  0  0  0  0  0
    4.7088    0.4242    1.5318 C   0  0  0  0  0  0  0  0  0  0  0  0
    4.8598    1.9057   -0.3709 C   0  0  0  0  0  0  0  0  0  0  0  0
    3.3621    0.1972    1.2480 C   0  0  0  0  0  0  0  0  0  0  0  0
    3.5132    1.6786   -0.6545 C   0  0  0  0  0  0  0  0  0  0  0  0
    2.7643    0.8243    0.1548 C   0  0  0  0  0  0  0  0  0  0  0  0
    1.3604    0.5866   -0.1411 C   0  0  0  0  0  0  0  0  0  0  0  0
   -0.4768   -1.1391    0.1612 C   0  0  0  0  0  0  0  0  0  0  0  0
   -2.1006   -2.8894    0.5312 C   0  0  0  0  0  0  0  0  0  0  0  0
   -0.7990   -2.4034    0.6544 C   0  0  0  0  0  0  0  0  0  0  0  0
   -3.0800   -2.1109   -0.0855 C   0  0  0  0  0  0  0  0  0  0  0  0
   -1.4563   -0.3608   -0.4556 C   0  0  0  0  0  0  0  0  0  0  0  0
   -2.7579   -0.8465   -0.5790 C   0  0  0  0  0  0  0  0  0  0  0  0
   -2.4182   -4.2470    1.0683 C   0  0  0  0  0  0  0  0  0  0  0  0
   -5.6493   -1.9345   -0.2624 C   0  0  0  0  0  0  0  0  0  0  0  0
   -6.8411    0.0004   -0.2114 C   0  0  0  0  0  0  0  0  0  0  0  0
   -6.8246    1.4397   -0.1051 C   0  0  0  0  0  0  0  0  0  0  0  0
   -8.0272   -0.6907   -0.3520 C   0  0  0  0  0  0  0  0  0  0  0  0
   -7.9117   -2.0628   -0.4433 C   0  0  0  0  0  0  0  0  0  0  0  0
   -6.1444    2.2194   -1.0340 C   0  0  0  0  0  0  0  0  0  0  0  0
   -7.4858    2.0880    0.9257 C   0  0  0  0  0  0  0  0  0  0  0  0
   -6.1462    3.6039   -0.9055 C   0  0  0  0  0  0  0  0  0  0  0  0
   -6.8379    4.1554    0.1610 C   0  0  0  0  0  0  0  0  0  0  0  0
    6.8672   -1.0934    0.4308 H   0  0  0  0  0  0  0  0  0  0  0  0
    8.2132   -0.7489    1.5239 H   0  0  0  0  0  0  0  0  0  0  0  0
    9.0812    2.4199   -0.2398 H   0  0  0  0  0  0  0  0  0  0  0  0
    9.5674    1.3909    1.1142 H   0  0  0  0  0  0  0  0  0  0  0  0
    8.8358   -2.4392   -0.1191 H   0  0  0  0  0  0  0  0  0  0  0  0
    8.3439   -1.4080   -1.4687 H   0  0  0  0  0  0  0  0  0  0  0  0
    9.7044    0.7293   -1.8796 H   0  0  0  0  0  0  0  0  0  0  0  0
   11.0583    1.0550   -0.7900 H   0  0  0  0  0  0  0  0  0  0  0  0
    7.1355    1.3022    2.0806 H   0  0  0  0  0  0  0  0  0  0  0  0
    7.0734    2.6060    0.9230 H   0  0  0  0  0  0  0  0  0  0  0  0
   11.0838   -2.5907   -1.0791 H   1  0  0  0  0  0  0  0  0  0  0  0
   12.0150   -1.1269   -1.3605 H   1  0  0  0  0  0  0  0  0  0  0  0
   10.6432   -1.5132   -2.4216 H   1  0  0  0  0  0  0  0  0  0  0  0
    5.1607   -0.0644    2.3910 H   0  0  0  0  0  0  0  0  0  0  0  0
    5.4333    2.5724   -1.0096 H   0  0  0  0  0  0  0  0  0  0  0  0
    2.8116   -0.4451    1.9290 H   0  0  0  0  0  0  0  0  0  0  0  0
    3.0682    2.1730   -1.5142 H   0  0  0  0  0  0  0  0  0  0  0  0
    1.4831   -1.3111    0.7131 H   0  0  0  0  0  0  0  0  0  0  0  0
   -0.0325   -3.0080    1.1342 H   0  0  0  0  0  0  0  0  0  0  0  0
   -1.2812    0.6209   -0.8721 H   0  0  0  0  0  0  0  0  0  0  0  0
   -3.4727   -0.2263   -1.1092 H   0  0  0  0  0  0  0  0  0  0  0  0
   -3.2542   -4.1987    1.7741 H   0  0  0  0  0  0  0  0  0  0  0  0
   -2.6690   -4.9321    0.2519 H   0  0  0  0  0  0  0  0  0  0  0  0
   -1.5689   -4.6789    1.6092 H   0  0  0  0  0  0  0  0  0  0  0  0
   -4.4998   -3.5963   -0.1967 H   0  0  0  0  0  0  0  0  0  0  0  0
   -8.9949   -0.2062   -0.3943 H   0  0  0  0  0  0  0  0  0  0  0  0
   -8.7892   -2.6904   -0.5568 H   0  0  0  0  0  0  0  0  0  0  0  0
   -5.6100    1.7655   -1.8649 H   0  0  0  0  0  0  0  0  0  0  0  0
   -8.0323    1.5404    1.6884 H   0  0  0  0  0  0  0  0  0  0  0  0
   -5.6233    4.2317   -1.6179 H   0  0  0  0  0  0  0  0  0  0  0  0
   -6.8701    5.2302    0.3057 H   0  0  0  0  0  0  0  0  0  0  0  0
  1 21  2  0  0  0  0
  2  9  1  0  0  0  0
  2 10  1  0  0  0  0
  2 13  1  0  0  0  0
  3 11  1  0  0  0  0
  3 12  1  0  0  0  0
  3 14  1  0  0  0  0
  4 21  1  0  0  0  0
  4 22  1  0  0  0  0
  4 55  1  0  0  0  0
  5 25  1  0  0  0  0
  5 29  1  0  0  0  0
  5 62  1  0  0  0  0
  6 29  1  0  0  0  0
  6 30  2  0  0  0  0
  7 29  2  0  0  0  0
  7 33  1  0  0  0  0
  8 35  1  0  0  0  0
  8 37  2  0  0  0  0
  9 11  1  0  0  0  0
  9 38  1  0  0  0  0
  9 39  1  0  0  0  0
 10 12  1  0  0  0  0
 10 40  1  0  0  0  0
 10 41  1  0  0  0  0
 11 42  1  0  0  0  0
 11 43  1  0  0  0  0
 12 44  1  0  0  0  0
 12 45  1  0  0  0  0
 13 15  1  0  0  0  0
 13 46  1  0  0  0  0
 13 47  1  0  0  0  0
 14 48  1  0  0  0  0
 14 49  1  0  0  0  0
 14 50  1  0  0  0  0
 15 16  2  0  0  0  0
 15 17  1  0  0  0  0
 16 18  1  0  0  0  0
 16 51  1  0  0  0  0
 17 19  2  0  0  0  0
 17 52  1  0  0  0  0
 18 20  2  0  0  0  0
 18 53  1  0  0  0  0
 19 20  1  0  0  0  0
 19 54  1  0  0  0  0
 20 21  1  0  0  0  0
 22 24  2  0  0  0  0
 22 26  1  0  0  0  0
 23 24  1  0  0  0  0
 23 25  2  0  0  0  0
 23 28  1  0  0  0  0
 24 56  1  0  0  0  0
 25 27  1  0  0  0  0
 26 27  2  0  0  0  0
 26 57  1  0  0  0  0
 27 58  1  0  0  0  0
 28 59  1  0  0  0  0
 28 60  1  0  0  0  0
 28 61  1  0  0  0  0
 30 31  1  0  0  0  0
 30 32  1  0  0  0  0
 31 34  1  0  0  0  0
 31 35  2  0  0  0  0
 32 33  2  0  0  0  0
 32 63  1  0  0  0  0
 33 64  1  0  0  0  0
 34 36  2  0  0  0  0
 34 65  1  0  0  0  0
 35 66  1  0  0  0  0
 36 37  1  0  0  0  0
 36 67  1  0  0  0  0
 37 68  1  0  0  0  0
M  ISO  3  48   2  49   2  50   2
M  END
> <PUBCHEM_COMPOUND_CID>
71749455

> <PUBCHEM_CONFORMER_RMSD>
1

> <PUBCHEM_CONFORMER_DIVERSEORDER>
9
62
136
59
91
79
26
50
122
48
96
68
77
82
107
115
78
100
99
69
112
127
15
45
125
14
57
102
76
108
88
49
117
126
35
22
21
10
104
70
128
18
105
132
129
95
94
71
90
110
39
113
66
81
67
121
131
87
85
133
89
72
43
98
116
101
103
84
111
65
134
73
130
83
86
64
19
135
60
124
32
114
63
119
52
25
55
123
51
7
61
31
109
37
80
75
24
34
54
92
3
44
12
8
36
16
106
74
38
27
20
29
30
6
1
23
97
40
120
53
28
2
41
58
5
56
118
11
13
4
42
93
47
46
17
33

> <PUBCHEM_MMFF94_PARTIAL_CHARGES>
51
1 -0.57
10 0.27
11 0.27
12 0.27
13 0.41
14 0.27
15 -0.14
16 -0.15
17 -0.15
18 -0.15
19 -0.15
2 -0.81
20 0.09
21 0.54
22 0.12
23 -0.14
24 -0.15
25 0.1
26 -0.15
27 -0.15
28 0.14
29 0.72
3 -0.81
30 0.31
32 -0.15
33 0.16
34 -0.15
35 0.16
36 -0.15
37 0.16
4 -0.55
5 -0.6
51 0.15
52 0.15
53 0.15
54 0.15
55 0.37
56 0.15
57 0.15
58 0.15
6 -0.62
62 0.4
63 0.15
64 0.15
65 0.15
66 0.15
67 0.15
68 0.15
7 -0.62
8 -0.62
9 0.27

> <PUBCHEM_EFFECTIVE_ROTOR_COUNT>
9.2

> <PUBCHEM_PHARMACOPHORE_FEATURES>
13
1 1 acceptor
1 2 cation
1 3 cation
1 4 donor
1 5 donor
1 6 acceptor
1 8 acceptor
4 5 6 7 29 cation
6 15 16 17 18 19 20 rings
6 2 3 9 10 11 12 rings
6 22 23 24 25 26 27 rings
6 6 7 29 30 32 33 rings
6 8 31 34 35 36 37 rings

> <PUBCHEM_HEAVY_ATOM_COUNT>
37

> <PUBCHEM_ATOM_DEF_STEREO_COUNT>
0

> <PUBCHEM_ATOM_UDEF_STEREO_COUNT>
0

> <PUBCHEM_BOND_DEF_STEREO_COUNT>
0

> <PUBCHEM_BOND_UDEF_STEREO_COUNT>
0

> <PUBCHEM_ISOTOPIC_ATOM_COUNT>
3

> <PUBCHEM_COMPONENT_COUNT>
1

> <PUBCHEM_CACTVS_TAUTO_COUNT>
6

> <PUBCHEM_CONFORMER_ID>
0446CF4F00000009

> <PUBCHEM_MMFF94_ENERGY>
125.2587

> <PUBCHEM_FEATURE_SELFOVERLAP>
65.975

> <PUBCHEM_SHAPE_FINGERPRINT>
10055352 69 12035740833866391670
100830 39 18410007750450557197
10580692 12 18410009957330219018
10666366 153 18273216396499996286
10669705 176 18342455937033910849
10670039 82 18411129274022738385
10674148 151 18261387880462571424
10917259 69 18340488850787134240
10951579 204 18339942423530950213
11115154 58 18041002843855558612
11408170 132 18336831979205450156
11621639 183 15720218476357049645
12133447 93 18409169888061388974
12539747 91 16845574202180177160
12758862 11 18199181974606940203
13008946 267 18192711146766964563
13553644 42 18270967826845570910
13885169 127 18411134766178068999
13947934 56 18272369768563397584
14040221 8 18334587833054589788
14294032 229 18041272184399684421
14400156 413 17632005469105032664
15131766 46 16268247228035308152
15152005 290 18411981326915456453
15289351 153 18411972568258256666
15328684 2 18115005451839047921
15444296 121 18260550073665812673
15604295 49 18198897209649299216
15890870 6 18408881803383743165
16664035 7 10663814179391826994
20105231 36 17530964717829201218
21792965 96 17968380048778880164
23522609 53 17604163626100055372
3711267 37 17385723616913829260
439807 62 18408604769867219382
44575985 48 17461708503789931325
6201320 215 17988647368183502041
636775 72 18268705181295048449

> <PUBCHEM_SHAPE_MULTIPOLES>
720.71
37.78
4.32
1.07
64.07
0.35
0.12
8.68
-6.96
-11.84
0.44
0.85
0.12
0.62

> <PUBCHEM_SHAPE_SELFOVERLAP>
1565.023

> <PUBCHEM_SHAPE_VOLUME>
390.6

> <PUBCHEM_COORDINATE_TYPE>
2
5
10

$$$$
119057347
  -OEChem-01162405103D

 65 69  0     0  0  0  0  0  0999 V2000
    0.5230   -0.0100    1.0632 O   0  0  0  0  0  0  0  0  0  0  0  0
   -6.5849   -0.2844    0.2053 N   0  0  0  0  0  0  0  0  0  0  0  0
   -8.7768   -0.0771   -1.6795 N   0  0  0  0  0  0  0  0  0  0  0  0
    0.0936    2.1060    0.1443 N   0  0  0  0  0  0  0  0  0  0  0  0
    4.9119    1.4990    0.1891 N   0  0  0  0  0  0  0  0  0  0  0  0
    4.0335   -0.6571   -0.0693 N   0  0  0  0  0  0  0  0  0  0  0  0
    6.3328   -0.3235    0.5705 N   0  0  0  0  0  0  0  0  0  0  0  0
    1.9067   -4.8840   -0.0437 N   0  0  0  0  0  0  0  0  0  0  0  0
   -6.7749    0.9214   -0.6110 C   0  0  0  0  0  0  0  0  0  0  0  0
   -7.8720   -0.9444    0.4595 C   0  0  0  0  0  0  0  0  0  0  0  0
   -7.4913    0.5821   -1.9204 C   0  0  0  0  0  0  0  0  0  0  0  0
   -8.5816   -1.2728   -0.8564 C   0  0  0  0  0  0  0  0  0  0  0  0
   -5.9101    0.0389    1.4607 C   0  0  0  0  0  0  0  0  0  0  0  0
   -4.4337    0.2580    1.2634 C   0  0  0  0  0  0  0  0  0  0  0  0
   -3.9142    1.5526    1.2617 C   0  0  0  0  0  0  0  0  0  0  0  0
   -3.5851   -0.8342    1.0825 C   0  0  0  0  0  0  0  0  0  0  0  0
   -2.5463    1.7549    1.0792 C   0  0  0  0  0  0  0  0  0  0  0  0
   -2.2172   -0.6318    0.9000 C   0  0  0  0  0  0  0  0  0  0  0  0
   -1.6978    0.6627    0.8982 C   0  0  0  0  0  0  0  0  0  0  0  0
   -0.2717    0.8751    0.7073 C   0  0  0  0  0  0  0  0  0  0  0  0
    1.3927    2.5975   -0.1339 C   0  0  0  0  0  0  0  0  0  0  0  0
    3.7906    2.3016   -0.1155 C   0  0  0  0  0  0  0  0  0  0  0  0
    2.5115    1.8177    0.1594 C   0  0  0  0  0  0  0  0  0  0  0  0
    3.9510    3.5654   -0.6838 C   0  0  0  0  0  0  0  0  0  0  0  0
    1.5531    3.8613   -0.7021 C   0  0  0  0  0  0  0  0  0  0  0  0
    2.8321    4.3453   -0.9769 C   0  0  0  0  0  0  0  0  0  0  0  0
    5.3089    4.1088   -0.9889 C   0  0  0  0  0  0  0  0  0  0  0  0
    5.1015    0.1053    0.2332 C   0  0  0  0  0  0  0  0  0  0  0  0
    4.2518   -1.9877   -0.0207 C   0  0  0  0  0  0  0  0  0  0  0  0
    3.1096   -2.8085   -0.3442 C   0  0  0  0  0  0  0  0  0  0  0  0
    5.4660   -2.5538    0.3103 C   0  0  0  0  0  0  0  0  0  0  0  0
    6.4807   -1.6642    0.5993 C   0  0  0  0  0  0  0  0  0  0  0  0
    2.1336   -2.3624   -1.2285 C   0  0  0  0  0  0  0  0  0  0  0  0
    2.9509   -4.0657    0.2163 C   0  0  0  0  0  0  0  0  0  0  0  0
    1.0443   -3.1756   -1.5210 C   0  0  0  0  0  0  0  0  0  0  0  0
    0.9781   -4.4163   -0.9079 C   0  0  0  0  0  0  0  0  0  0  0  0
   -7.3519    1.6795   -0.0641 H   0  0  0  0  0  0  0  0  0  0  0  0
   -5.8105    1.3697   -0.8736 H   0  0  0  0  0  0  0  0  0  0  0  0
   -7.7097   -1.8824    1.0042 H   0  0  0  0  0  0  0  0  0  0  0  0
   -8.5190   -0.3108    1.0812 H   0  0  0  0  0  0  0  0  0  0  0  0
   -7.6695    1.5054   -2.4827 H   0  0  0  0  0  0  0  0  0  0  0  0
   -6.8553   -0.0563   -2.5469 H   0  0  0  0  0  0  0  0  0  0  0  0
   -8.0118   -2.0242   -1.4178 H   0  0  0  0  0  0  0  0  0  0  0  0
   -9.5606   -1.7128   -0.6367 H   0  0  0  0  0  0  0  0  0  0  0  0
   -6.0095   -0.7938    2.1715 H   0  0  0  0  0  0  0  0  0  0  0  0
   -6.3728    0.8999    1.9625 H   0  0  0  0  0  0  0  0  0  0  0  0
   -9.1967   -0.3412   -2.5701 H   0  0  0  0  0  0  0  0  0  0  0  0
   -4.5635    2.4115    1.4096 H   1  0  0  0  0  0  0  0  0  0  0  0
   -3.9780   -1.8476    1.0806 H   1  0  0  0  0  0  0  0  0  0  0  0
   -2.1845    2.7778    1.1243 H   1  0  0  0  0  0  0  0  0  0  0  0
   -1.5741   -1.4961    0.7550 H   1  0  0  0  0  0  0  0  0  0  0  0
   -0.6455    2.7390   -0.1486 H   0  0  0  0  0  0  0  0  0  0  0  0
    2.4218    0.8701    0.6623 H   0  0  0  0  0  0  0  0  0  0  0  0
    0.6899    4.4795   -0.9354 H   0  0  0  0  0  0  0  0  0  0  0  0
    2.9389    5.3324   -1.4189 H   0  0  0  0  0  0  0  0  0  0  0  0
    5.7793    2.0078    0.3238 H   0  0  0  0  0  0  0  0  0  0  0  0
    5.8676    4.2835   -0.0636 H   0  0  0  0  0  0  0  0  0  0  0  0
    5.8683    3.4175   -1.6281 H   0  0  0  0  0  0  0  0  0  0  0  0
    5.2533    5.0635   -1.5234 H   0  0  0  0  0  0  0  0  0  0  0  0
    5.6577   -3.6189    0.3321 H   0  0  0  0  0  0  0  0  0  0  0  0
    7.4721   -2.0153    0.8651 H   0  0  0  0  0  0  0  0  0  0  0  0
    2.1976   -1.3903   -1.7111 H   0  0  0  0  0  0  0  0  0  0  0  0
    3.6515   -4.4829    0.9330 H   0  0  0  0  0  0  0  0  0  0  0  0
    0.2718   -2.8489   -2.2077 H   0  0  0  0  0  0  0  0  0  0  0  0
    0.1487   -5.0883   -1.1026 H   0  0  0  0  0  0  0  0  0  0  0  0
  1 20  2  0  0  0  0
  2  9  1  0  0  0  0
  2 10  1  0  0  0  0
  2 13  1  0  0  0  0
  3 11  1  0  0  0  0
  3 12  1  0  0  0  0
  3 47  1  0  0  0  0
  4 20  1  0  0  0  0
  4 21  1  0  0  0  0
  4 52  1  0  0  0  0
  5 22  1  0  0  0  0
  5 28  1  0  0  0  0
  5 56  1  0  0  0  0
  6 28  1  0  0  0  0
  6 29  2  0  0  0  0
  7 28  2  0  0  0  0
  7 32  1  0  0  0  0
  8 34  1  0  0  0  0
  8 36  2  0  0  0  0
  9 11  1  0  0  0  0
  9 37  1  0  0  0  0
  9 38  1  0  0  0  0
 10 12  1  0  0  0  0
 10 39  1  0  0  0  0
 10 40  1  0  0  0  0
 11 41  1  0  0  0  0
 11 42  1  0  0  0  0
 12 43  1  0  0  0  0
 12 44  1  0  0  0  0
 13 14  1  0  0  0  0
 13 45  1  0  0  0  0
 13 46  1  0  0  0  0
 14 15  2  0  0  0  0
 14 16  1  0  0  0  0
 15 17  1  0  0  0  0
 15 48  1  0  0  0  0
 16 18  2  0  0  0  0
 16 49  1  0  0  0  0
 17 19  2  0  0  0  0
 17 50  1  0  0  0  0
 18 19  1  0  0  0  0
 18 51  1  0  0  0  0
 19 20  1  0  0  0  0
 21 23  2  0  0  0  0
 21 25  1  0  0  0  0
 22 23  1  0  0  0  0
 22 24  2  0  0  0  0
 23 53  1  0  0  0  0
 24 26  1  0  0  0  0
 24 27  1  0  0  0  0
 25 26  2  0  0  0  0
 25 54  1  0  0  0  0
 26 55  1  0  0  0  0
 27 57  1  0  0  0  0
 27 58  1  0  0  0  0
 27 59  1  0  0  0  0
 29 30  1  0  0  0  0
 29 31  1  0  0  0  0
 30 33  1  0  0  0  0
 30 34  2  0  0  0  0
 31 32  2  0  0  0  0
 31 60  1  0  0  0  0
 32 61  1  0  0  0  0
 33 35  2  0  0  0  0
 33 62  1  0  0  0  0
 34 63  1  0  0  0  0
 35 36  1  0  0  0  0
 35 64  1  0  0  0  0
 36 65  1  0  0  0  0
M  ISO  4  48   2  49   2  50   2  51   2
M  END
> <PUBCHEM_COMPOUND_CID>
119057347

> <PUBCHEM_CONFORMER_RMSD>
1

> <PUBCHEM_CONFORMER_DIVERSEORDER>
1
124
165
78
103
189
187
156
86
119
89
167
152
190
178
166
100
172
139
95
149
126
71
92
154
121
148
91
168
147
112
22
188
138
8
98
26
134
123
118
159
151
44
142
116
61
155
39
77
41
157
127
125
186
185
111
56
74
72
135
66
132
42
70
32
30
63
45
97
101
80
133
81
153
13
17
93
120
182
62
136
82
57
9
114
53
43
191
64
110
49
52
137
108
141
180
163
122
146
83
36
183
128
58
130
35
21
117
102
46
67
87
171
161
84
143
14
50
145
25
90
96
2
23
162
109
55
173
150
12
164
144
3
48
184
27
177
176
75
47
38
105
20
113
169
76
59
15
179
106
170
18
160
94
34
158
175
174
28
79
24
19
140
99
4
51
131
181
33
54
129
104
60
73
31
10
88
107
68
85
6
40
7
37
115
69
16
29
11
65
5

> <PUBCHEM_MMFF94_PARTIAL_CHARGES>
51
1 -0.57
10 0.27
11 0.27
12 0.27
13 0.41
14 -0.14
15 -0.15
16 -0.15
17 -0.15
18 -0.15
19 0.09
2 -0.81
20 0.54
21 0.12
22 0.1
23 -0.15
24 -0.14
25 -0.15
26 -0.15
27 0.14
28 0.72
29 0.31
3 -0.9
31 -0.15
32 0.16
33 -0.15
34 0.16
35 -0.15
36 0.16
4 -0.55
47 0.36
48 0.15
49 0.15
5 -0.6
50 0.15
51 0.15
52 0.37
53 0.15
54 0.15
55 0.15
56 0.4
6 -0.62
60 0.15
61 0.15
62 0.15
63 0.15
64 0.15
65 0.15
7 -0.62
8 -0.62
9 0.27

> <PUBCHEM_EFFECTIVE_ROTOR_COUNT>
9.2

> <PUBCHEM_PHARMACOPHORE_FEATURES>
14
1 1 acceptor
1 2 cation
1 3 cation
1 3 donor
1 4 donor
1 5 donor
1 6 acceptor
1 8 acceptor
4 5 6 7 28 cation
6 14 15 16 17 18 19 rings
6 2 3 9 10 11 12 rings
6 21 22 23 24 25 26 rings
6 6 7 28 29 31 32 rings
6 8 30 33 34 35 36 rings

> <PUBCHEM_HEAVY_ATOM_COUNT>
36

> <PUBCHEM_ATOM_DEF_STEREO_COUNT>
0

> <PUBCHEM_ATOM_UDEF_STEREO_COUNT>
0

> <PUBCHEM_BOND_DEF_STEREO_COUNT>
0

> <PUBCHEM_BOND_UDEF_STEREO_COUNT>
0

> <PUBCHEM_ISOTOPIC_ATOM_COUNT>
4

> <PUBCHEM_COMPONENT_COUNT>
1

> <PUBCHEM_CACTVS_TAUTO_COUNT>
72

> <PUBCHEM_CONFORMER_ID>
0718ABC300000001

> <PUBCHEM_MMFF94_ENERGY>
118.0049

> <PUBCHEM_FEATURE_SELFOVERLAP>
71.05

> <PUBCHEM_SHAPE_FINGERPRINT>
11135926 11 18268723860666429177
11374522 175 18336543799420650451
11719270 70 18340486759053366217
11828532 37 17386019398368210219
11973864 48 18041284383583865595
12202916 173 18187927245037115306
12857493 111 18335417916298519093
1361 2 18411425016348056658
14117953 113 18411425012385353190
14725015 67 18188203209717880370
15119646 104 18273501157005297553
15264996 74 17771908496600496838
15328829 1 17561074800910895695
15400415 2 17905339772543542000
15444296 7 17917423233644333191
15483637 11 17977390756652947914
15484559 13 18338811099665299070
1577012 14 18271538563052434201
15927050 60 18051707822069863124
17852330 134 18194386816174353293
18365409 1 17987229113752149238
21133410 58 18334007311272199691
23559900 14 18411135866264918425
24771293 8 18200599094391434074
354706 109 18339908424849176122
3633792 109 18335979793042145233
394071 54 18270136607889516307
4149490 64 18334866060888506819
4403749 210 17760372493142224280
5309563 4 18265903445684192160
6004065 56 18410572872823682010
9555976 147 17273144488260036841

> <PUBCHEM_SHAPE_MULTIPOLES>
700.13
21.4
6.09
1.37
47.36
1.27
-0.25
2.01
-4.23
-12.84
-2.37
2.12
-0.02
-1.4

> <PUBCHEM_SHAPE_SELFOVERLAP>
1525.387

> <PUBCHEM_SHAPE_VOLUME>
377.3

> <PUBCHEM_COORDINATE_TYPE>
2
5
10

$$$$
71749454
  -OEChem-01162405103D

 68 72  0     0  0  0  0  0  0999 V2000
   -0.0423   -4.8113   -0.6370 O   0  0  0  0  0  0  0  0  0  0  0  0
    4.0000    0.1988    1.0127 N   0  0  0  0  0  0  0  0  0  0  0  0
    4.8177    2.9114    0.4360 N   0  0  0  0  0  0  0  0  0  0  0  0
   -0.4601   -2.5981    0.0214 N   0  0  0  0  0  0  0  0  0  0  0  0
   -4.5460   -0.0781    0.7568 N   0  0  0  0  0  0  0  0  0  0  0  0
   -2.9789    1.5078    0.0383 N   0  0  0  0  0  0  0  0  0  0  0  0
   -5.0399    2.1876    1.0859 N   0  0  0  0  0  0  0  0  0  0  0  0
    0.5684    4.4902   -0.9168 N   0  0  0  0  0  0  0  0  0  0  0  0
    4.9574    0.4947   -0.0600 C   0  0  0  0  0  0  0  0  0  0  0  0
    4.0920    1.2090    2.0740 C   0  0  0  0  0  0  0  0  0  0  0  0
    4.7263    1.9006   -0.6247 C   0  0  0  0  0  0  0  0  0  0  0  0
    3.8617    2.6154    1.5102 C   0  0  0  0  0  0  0  0  0  0  0  0
    4.2216   -1.1416    1.5514 C   0  0  0  0  0  0  0  0  0  0  0  0
    4.5941    4.2513   -0.1031 C   0  0  0  0  0  0  0  0  0  0  0  0
    3.6744   -2.2089    0.6414 C   0  0  0  0  0  0  0  0  0  0  0  0
    2.3011   -2.4488    0.5938 C   0  0  0  0  0  0  0  0  0  0  0  0
    4.5411   -2.9575   -0.1552 C   0  0  0  0  0  0  0  0  0  0  0  0
    1.7945   -3.4372   -0.2502 C   0  0  0  0  0  0  0  0  0  0  0  0
    4.0345   -3.9457   -0.9994 C   0  0  0  0  0  0  0  0  0  0  0  0
    2.6611   -4.1856   -1.0468 C   0  0  0  0  0  0  0  0  0  0  0  0
    0.3627   -3.6868   -0.3003 C   0  0  0  0  0  0  0  0  0  0  0  0
   -1.8753   -2.5360    0.0349 C   0  0  0  0  0  0  0  0  0  0  0  0
   -2.5183   -1.3489    0.3857 C   0  0  0  0  0  0  0  0  0  0  0  0
   -3.9119   -1.2878    0.3980 C   0  0  0  0  0  0  0  0  0  0  0  0
   -4.6623   -2.4140    0.0596 C   0  0  0  0  0  0  0  0  0  0  0  0
   -2.6257   -3.6622   -0.3034 C   0  0  0  0  0  0  0  0  0  0  0  0
   -4.0192   -3.6012   -0.2908 C   0  0  0  0  0  0  0  0  0  0  0  0
   -6.1560   -2.3771    0.0642 C   0  0  0  0  0  0  0  0  0  0  0  0
   -4.1695    1.2710    0.6213 C   0  0  0  0  0  0  0  0  0  0  0  0
   -2.6516    2.8115   -0.0786 C   0  0  0  0  0  0  0  0  0  0  0  0
   -1.3762    3.0696   -0.7030 C   0  0  0  0  0  0  0  0  0  0  0  0
   -3.4550    3.8457    0.3565 C   0  0  0  0  0  0  0  0  0  0  0  0
   -4.6496    3.4704    0.9366 C   0  0  0  0  0  0  0  0  0  0  0  0
   -0.8563    2.2018   -1.6569 C   0  0  0  0  0  0  0  0  0  0  0  0
   -0.6313    4.1898   -0.3708 C   0  0  0  0  0  0  0  0  0  0  0  0
    0.3752    2.4768   -2.2412 C   0  0  0  0  0  0  0  0  0  0  0  0
    1.0416    3.6235   -1.8403 C   0  0  0  0  0  0  0  0  0  0  0  0
    4.8413   -0.2111   -0.8898 H   0  0  0  0  0  0  0  0  0  0  0  0
    5.9918    0.4098    0.3002 H   0  0  0  0  0  0  0  0  0  0  0  0
    3.3271    1.0187    2.8368 H   0  0  0  0  0  0  0  0  0  0  0  0
    5.0700    1.1646    2.5722 H   0  0  0  0  0  0  0  0  0  0  0  0
    5.4891    2.0952   -1.3883 H   0  0  0  0  0  0  0  0  0  0  0  0
    3.7482    1.9414   -1.1223 H   0  0  0  0  0  0  0  0  0  0  0  0
    2.8277    2.7030    1.1493 H   0  0  0  0  0  0  0  0  0  0  0  0
    3.9849    3.3385    2.3255 H   0  0  0  0  0  0  0  0  0  0  0  0
    5.2821   -1.3208    1.7756 H   0  0  0  0  0  0  0  0  0  0  0  0
    3.7032   -1.2557    2.5140 H   0  0  0  0  0  0  0  0  0  0  0  0
    5.3239    4.4780   -0.8881 H   1  0  0  0  0  0  0  0  0  0  0  0
    4.7318    5.0051    0.6800 H   1  0  0  0  0  0  0  0  0  0  0  0
    3.5904    4.3722   -0.5195 H   1  0  0  0  0  0  0  0  0  0  0  0
    1.6610   -1.8738    1.2571 H   0  0  0  0  0  0  0  0  0  0  0  0
    5.6130   -2.7805   -0.1287 H   0  0  0  0  0  0  0  0  0  0  0  0
    4.7093   -4.5272   -1.6207 H   0  0  0  0  0  0  0  0  0  0  0  0
    2.2876   -4.9567   -1.7156 H   0  0  0  0  0  0  0  0  0  0  0  0
   -0.0196   -1.7078    0.2349 H   0  0  0  0  0  0  0  0  0  0  0  0
   -1.9051   -0.5069    0.6907 H   0  0  0  0  0  0  0  0  0  0  0  0
   -2.2014   -4.6152   -0.5852 H   0  0  0  0  0  0  0  0  0  0  0  0
   -4.5896   -4.4876   -0.5561 H   0  0  0  0  0  0  0  0  0  0  0  0
   -5.4937   -0.1779    1.1054 H   0  0  0  0  0  0  0  0  0  0  0  0
   -6.5321   -2.2416    1.0836 H   0  0  0  0  0  0  0  0  0  0  0  0
   -6.5256   -1.5659   -0.5720 H   0  0  0  0  0  0  0  0  0  0  0  0
   -6.5862   -3.3074   -0.3229 H   0  0  0  0  0  0  0  0  0  0  0  0
   -3.2118    4.8950    0.2489 H   0  0  0  0  0  0  0  0  0  0  0  0
   -5.3494    4.2133    1.3042 H   0  0  0  0  0  0  0  0  0  0  0  0
   -1.3903    1.3088   -1.9721 H   0  0  0  0  0  0  0  0  0  0  0  0
   -0.9499    4.9068    0.3794 H   0  0  0  0  0  0  0  0  0  0  0  0
    0.7989    1.8164   -2.9890 H   0  0  0  0  0  0  0  0  0  0  0  0
    2.0009    3.8852   -2.2736 H   0  0  0  0  0  0  0  0  0  0  0  0
  1 21  2  0  0  0  0
  2  9  1  0  0  0  0
  2 10  1  0  0  0  0
  2 13  1  0  0  0  0
  3 11  1  0  0  0  0
  3 12  1  0  0  0  0
  3 14  1  0  0  0  0
  4 21  1  0  0  0  0
  4 22  1  0  0  0  0
  4 55  1  0  0  0  0
  5 24  1  0  0  0  0
  5 29  1  0  0  0  0
  5 59  1  0  0  0  0
  6 29  1  0  0  0  0
  6 30  2  0  0  0  0
  7 29  2  0  0  0  0
  7 33  1  0  0  0  0
  8 35  1  0  0  0  0
  8 37  2  0  0  0  0
  9 11  1  0  0  0  0
  9 38  1  0  0  0  0
  9 39  1  0  0  0  0
 10 12  1  0  0  0  0
 10 40  1  0  0  0  0
 10 41  1  0  0  0  0
 11 42  1  0  0  0  0
 11 43  1  0  0  0  0
 12 44  1  0  0  0  0
 12 45  1  0  0  0  0
 13 15  1  0  0  0  0
 13 46  1  0  0  0  0
 13 47  1  0  0  0  0
 14 48  1  0  0  0  0
 14 49  1  0  0  0  0
 14 50  1  0  0  0  0
 15 16  2  0  0  0  0
 15 17  1  0  0  0  0
 16 18  1  0  0  0  0
 16 51  1  0  0  0  0
 17 19  2  0  0  0  0
 17 52  1  0  0  0  0
 18 20  2  0  0  0  0
 18 21  1  0  0  0  0
 19 20  1  0  0  0  0
 19 53  1  0  0  0  0
 20 54  1  0  0  0  0
 22 23  2  0  0  0  0
 22 26  1  0  0  0  0
 23 24  1  0  0  0  0
 23 56  1  0  0  0  0
 24 25  2  0  0  0  0
 25 27  1  0  0  0  0
 25 28  1  0  0  0  0
 26 27  2  0  0  0  0
 26 57  1  0  0  0  0
 27 58  1  0  0  0  0
 28 60  1  0  0  0  0
 28 61  1  0  0  0  0
 28 62  1  0  0  0  0
 30 31  1  0  0  0  0
 30 32  1  0  0  0  0
 31 34  1  0  0  0  0
 31 35  2  0  0  0  0
 32 33  2  0  0  0  0
 32 63  1  0  0  0  0
 33 64  1  0  0  0  0
 34 36  2  0  0  0  0
 34 65  1  0  0  0  0
 35 66  1  0  0  0  0
 36 37  1  0  0  0  0
 36 67  1  0  0  0  0
 37 68  1  0  0  0  0
M  ISO  3  48   2  49   2  50   2
M  END
> <PUBCHEM_COMPOUND_CID>
71749454

> <PUBCHEM_CONFORMER_RMSD>
1.2

> <PUBCHEM_CONFORMER_DIVERSEORDER>
1
180
23
51
71
48
62
40
183
153
22
186
132
168
89
190
58
187
181
75
94
115
154
82
110
16
133
73
177
134
159
140
119
105
197
80
102
86
42
63
184
189
195
165
157
104
28
176
151
155
109
69
35
84
33
92
30
66
137
160
152
164
39
128
179
3
145
136
185
61
125
148
174
55
79
88
120
127
52
156
182
178
139
85
9
117
77
78
106
96
123
32
143
166
20
122
196
81
24
103
126
60
26
167
36
49
4
97
93
68
163
72
121
108
188
95
131
170
53
83
175
74
65
90
112
99
56
141
147
158
171
87
161
64
29
124
172
57
70
149
50
25
67
169
10
34
37
144
194
45
192
193
2
114
41
150
76
47
118
107
18
116
142
173
5
100
111
43
44
138
38
162
146
31
129
19
13
101
98
7
59
17
54
11
21
130
91
6
14
27
12
191
15
46
113
135
8

> <PUBCHEM_MMFF94_PARTIAL_CHARGES>
51
1 -0.57
10 0.27
11 0.27
12 0.27
13 0.41
14 0.27
15 -0.14
16 -0.15
17 -0.15
18 0.09
19 -0.15
2 -0.81
20 -0.15
21 0.54
22 0.12
23 -0.15
24 0.1
25 -0.14
26 -0.15
27 -0.15
28 0.14
29 0.72
3 -0.81
30 0.31
32 -0.15
33 0.16
34 -0.15
35 0.16
36 -0.15
37 0.16
4 -0.55
5 -0.6
51 0.15
52 0.15
53 0.15
54 0.15
55 0.37
56 0.15
57 0.15
58 0.15
59 0.4
6 -0.62
63 0.15
64 0.15
65 0.15
66 0.15
67 0.15
68 0.15
7 -0.62
8 -0.62
9 0.27

> <PUBCHEM_EFFECTIVE_ROTOR_COUNT>
9.2

> <PUBCHEM_PHARMACOPHORE_FEATURES>
13
1 1 acceptor
1 2 cation
1 3 cation
1 4 donor
1 5 donor
1 6 acceptor
1 8 acceptor
4 5 6 7 29 cation
6 15 16 17 18 19 20 rings
6 2 3 9 10 11 12 rings
6 22 23 24 25 26 27 rings
6 6 7 29 30 32 33 rings
6 8 31 34 35 36 37 rings

> <PUBCHEM_HEAVY_ATOM_COUNT>
37

> <PUBCHEM_ATOM_DEF_STEREO_COUNT>
0

> <PUBCHEM_ATOM_UDEF_STEREO_COUNT>
0

> <PUBCHEM_BOND_DEF_STEREO_COUNT>
0

> <PUBCHEM_BOND_UDEF_STEREO_COUNT>
0

> <PUBCHEM_ISOTOPIC_ATOM_COUNT>
3

> <PUBCHEM_COMPONENT_COUNT>
1

> <PUBCHEM_CACTVS_TAUTO_COUNT>
6

> <PUBCHEM_CONFORMER_ID>
0446CF4E00000001

> <PUBCHEM_MMFF94_ENERGY>
123.655

> <PUBCHEM_FEATURE_SELFOVERLAP>
65.975

> <PUBCHEM_SHAPE_FINGERPRINT>
11399939 17 18265065647668052684
11513181 2 18411989078386628182
13165054 235 17972860729827217228
13561361 72 18264202509205936098
1361 2 18120090834545021952
140371 6 18263926712403201347
144659 178 16970540599919204496
14940108 7 17844217762372760661
15320291 9 18410005529192485312
15320467 1 18123190366260851336
15351339 4 16822482576225737224
15406563 185 17770528599984397332
15419008 145 18336246995874329810
15721738 15 15881779357126920020
15961568 22 18337107959974632934
16067690 210 17968376732473121507
17627616 140 17326894483218477343
20764821 26 18335981961314567630
373842 8 18409445899655024159
474144 1 17753050789076627908
50080093 196 18115577296342509290
5047190 48 18338794619480132080
5776283 40 18193576493089216454
6176135 31 18268422451865556080
653340 110 18411979204056640224
6608658 132 17840576325627269406
9543594 6 18337397049954077246
9961470 85 18339638937221230477
9982175 49 17679312024754892412

> <PUBCHEM_SHAPE_MULTIPOLES>
720.71
12.75
8.98
1.43
1.41
0.1
0.14
-0.01
-4.13
-0.93
2.47
-1.11
1.09
0.08

> <PUBCHEM_SHAPE_SELFOVERLAP>
1565.724

> <PUBCHEM_SHAPE_VOLUME>
391

> <PUBCHEM_COORDINATE_TYPE>
2
5
10

$$$$
163197293
  -OEChem-01162405103D

 37 39  0     0  0  0  0  0  0999 V2000
   -3.4419    2.9393   -1.0135 O   0  5  0  0  0  0  0  0  0  0  0  0
    2.7550    3.8806   -0.1165 O   0  5  0  0  0  0  0  0  0  0  0  0
    0.9273    2.9260   -0.8699 O   0  0  0  0  0  0  0  0  0  0  0  0
    1.6657   -1.9819   -0.3393 N   0  0  0  0  0  0  0  0  0  0  0  0
   -0.5259   -1.1872   -0.0736 N   0  0  0  0  0  0  0  0  0  0  0  0
   -0.1065   -3.4807   -0.6830 N   0  0  0  0  0  0  0  0  0  0  0  0
   -3.4868    1.8893   -0.2938 N   0  3  0  0  0  0  0  0  0  0  0  0
    2.0752    2.8563   -0.3679 N   0  3  0  0  0  0  0  0  0  0  0  0
    2.4227   -0.8289   -0.0587 C   0  0  0  0  0  0  0  0  0  0  0  0
    3.6967   -0.9304    0.5000 C   0  0  0  0  0  0  0  0  0  0  0  0
    1.8852    0.4258   -0.3462 C   0  0  0  0  0  0  0  0  0  0  0  0
    4.4333    0.2226    0.7710 C   0  0  0  0  0  0  0  0  0  0  0  0
    2.6217    1.5788   -0.0751 C   0  0  0  0  0  0  0  0  0  0  0  0
   -1.8471   -1.4580   -0.1094 C   0  0  0  0  0  0  0  0  0  0  0  0
   -2.7111   -0.3420    0.2030 C   0  0  0  0  0  0  0  0  0  0  0  0
    0.2758   -2.2288   -0.3665 C   0  0  0  0  0  0  0  0  0  0  0  0
    3.8958    1.4772    0.4836 C   0  0  0  0  0  0  0  0  0  0  0  0
    4.2972   -2.2611    0.8176 C   0  0  0  0  0  0  0  0  0  0  0  0
   -2.3674   -2.6980   -0.4194 C   0  0  0  0  0  0  0  0  0  0  0  0
   -2.6706    0.8105   -0.5747 C   0  0  0  0  0  0  0  0  0  0  0  0
   -3.5871   -0.4099    1.2808 C   0  0  0  0  0  0  0  0  0  0  0  0
   -1.4406   -3.6811   -0.7001 C   0  0  0  0  0  0  0  0  0  0  0  0
   -4.4132    0.6701    1.5724 C   0  0  0  0  0  0  0  0  0  0  0  0
   -4.3535    1.8113    0.7793 C   0  0  0  0  0  0  0  0  0  0  0  0
    0.9190    0.5140   -0.8314 H   0  0  0  0  0  0  0  0  0  0  0  0
    2.2050   -2.8318   -0.4673 H   0  0  0  0  0  0  0  0  0  0  0  0
    5.4278    0.1613    1.2053 H   0  0  0  0  0  0  0  0  0  0  0  0
    4.4984    2.3537    0.7080 H   0  0  0  0  0  0  0  0  0  0  0  0
    3.6351   -2.8393    1.4708 H   0  0  0  0  0  0  0  0  0  0  0  0
    5.2539   -2.1599    1.3420 H   0  0  0  0  0  0  0  0  0  0  0  0
    4.4860   -2.8248   -0.1019 H   0  0  0  0  0  0  0  0  0  0  0  0
   -3.4300   -2.9049   -0.4503 H   0  0  0  0  0  0  0  0  0  0  0  0
   -2.0242    0.9522   -1.4303 H   0  0  0  0  0  0  0  0  0  0  0  0
   -3.6379   -1.2950    1.9105 H   0  0  0  0  0  0  0  0  0  0  0  0
   -1.7548   -4.6875   -0.9556 H   0  0  0  0  0  0  0  0  0  0  0  0
   -5.0987    0.6250    2.4127 H   0  0  0  0  0  0  0  0  0  0  0  0
   -4.9610    2.6899    0.9406 H   0  0  0  0  0  0  0  0  0  0  0  0
  1  7  1  0  0  0  0
  2  8  1  0  0  0  0
  3  8  2  0  0  0  0
  4  9  1  0  0  0  0
  4 16  1  0  0  0  0
  4 26  1  0  0  0  0
  5 14  2  0  0  0  0
  5 16  1  0  0  0  0
  6 16  2  0  0  0  0
  6 22  1  0  0  0  0
  7 20  1  0  0  0  0
  7 24  2  0  0  0  0
  8 13  1  0  0  0  0
  9 10  2  0  0  0  0
  9 11  1  0  0  0  0
 10 12  1  0  0  0  0
 10 18  1  0  0  0  0
 11 13  2  0  0  0  0
 11 25  1  0  0  0  0
 12 17  2  0  0  0  0
 12 27  1  0  0  0  0
 13 17  1  0  0  0  0
 14 15  1  0  0  0  0
 14 19  1  0  0  0  0
 15 20  2  0  0  0  0
 15 21  1  0  0  0  0
 17 28  1  0  0  0  0
 18 29  1  0  0  0  0
 18 30  1  0  0  0  0
 18 31  1  0  0  0  0
 19 22  2  0  0  0  0
 19 32  1  0  0  0  0
 20 33  1  0  0  0  0
 21 23  2  0  0  0  0
 21 34  1  0  0  0  0
 22 35  1  0  0  0  0
 23 24  1  0  0  0  0
 23 36  1  0  0  0  0
 24 37  1  0  0  0  0
M  CHG  4   1  -1   2  -1   7   1   8   1
M  END
> <PUBCHEM_COMPOUND_CID>
163197293

> <PUBCHEM_CONFORMER_RMSD>
0.8

> <PUBCHEM_CONFORMER_DIVERSEORDER>
7
6
42
32
52
66
37
2
12
75
53
85
19
41
10
54
76
20
4
39
56
25
80
34
11
70
28
36
13
3
88
31
21
79
30
87
5
62
17
89
1
67
18
59
48
40
8
68
60
27
14
73
77
33
45
64
9
51
26
90
22
61
83
24
55
23
63
29
69
81
49
16
50
58
72
84
74
15
46
44
38
82
43
78
57
35
71
65
86
47

> <PUBCHEM_MMFF94_PARTIAL_CHARGES>
33
1 -0.75
10 -0.14
11 -0.15
12 -0.15
13 0.13
14 0.31
16 0.72
17 -0.15
18 0.14
19 -0.15
2 -0.52
20 -0.06
21 -0.15
22 0.16
23 -0.15
24 -0.06
25 0.15
26 0.4
27 0.15
28 0.15
3 -0.52
32 0.15
33 0.15
34 0.15
35 0.15
36 0.15
37 0.15
4 -0.6
5 -0.62
6 -0.62
7 0.57
8 0.91
9 0.1

> <PUBCHEM_EFFECTIVE_ROTOR_COUNT>
4

> <PUBCHEM_PHARMACOPHORE_FEATURES>
10
1 1 anion
1 2 acceptor
1 2 anion
1 3 acceptor
1 4 donor
1 5 acceptor
4 4 5 6 16 cation
6 5 6 14 16 19 22 rings
6 7 15 20 21 23 24 rings
6 9 10 11 12 13 17 rings

> <PUBCHEM_HEAVY_ATOM_COUNT>
24

> <PUBCHEM_ATOM_DEF_STEREO_COUNT>
0

> <PUBCHEM_ATOM_UDEF_STEREO_COUNT>
0

> <PUBCHEM_BOND_DEF_STEREO_COUNT>
0

> <PUBCHEM_BOND_UDEF_STEREO_COUNT>
0

> <PUBCHEM_ISOTOPIC_ATOM_COUNT>
0

> <PUBCHEM_COMPONENT_COUNT>
1

> <PUBCHEM_CACTVS_TAUTO_COUNT>
-1

> <PUBCHEM_CONFORMER_ID>
09BA316D00000007

> <PUBCHEM_MMFF94_ENERGY>
85.343

> <PUBCHEM_FEATURE_SELFOVERLAP>
50.827

> <PUBCHEM_SHAPE_FINGERPRINT>
10670039 82 17905617953575417788
10871710 139 17545614807998661757
11370993 70 18340198596902350137
11725454 13 17242708928629694855
12107183 9 18339354176763246650
12403260 363 18340758321467396071
12539773 59 17630616828240322381
12633257 1 18411136948127087036
12645989 146 18196926665388917983
12788726 201 17771069594602779287
12838863 1 18048853248685538359
12925494 130 17979080384451107337
12978246 48 18410578391941423633
13122387 1 18410011078248429917
13140716 1 18410015463435925707
13402501 40 17973157336222261101
13583140 156 17676195858440418019
14117953 113 18124030126872402428
14178342 30 18123169458908609498
14466204 15 18264482880434022082
14790565 3 18046628082597682012
15003188 8 18338780231134150576
151778 21 18339093652141237233
15403338 16 16953079926083953393
15442244 35 18337946909084797278
1601671 61 18410577288846588524
16110190 28 18408598159315893592
17093844 170 17905318529587361764
17492 89 18193553591759740970
17627616 140 15163758346579091333
17859628 37 18410572860302679558
19591789 44 18050847715675952774
19930381 70 18266741269191990197
20567600 299 17981317894333149973
20715895 44 18269275651973289561
21033648 29 18129082468685646256
21665062 11 18408325480126373258
21731228 192 18411704279126745079
21795232 338 17687983624767702018
21864079 5 18268718375164867342
22113638 7 18339073796454342380
22749437 52 18343298197321540193
23227448 37 18412544327643341143
23558518 356 18339076115642496626
23559900 14 17846502513666417182
238918 7 17908401577481862410
350125 39 18340488971246386051
469060 322 17255693417117317811
474 4 18271244898715144843
5048184 11 18267876162111653529
5081480 168 17342967861241609118
5171179 24 16975602184787151982
5252454 2 18125173867947292273
6371009 1 18340753902061729045
7064713 232 18271805752313153816
7097593 13 18335977666489903950
7164475 11 18125431166690133318
7832392 63 18410852192286082826

> <PUBCHEM_SHAPE_MULTIPOLES>
451.4
9.23
4.65
1.02
0.06
0.13
0.22
4.01
3.34
0.22
-1.49
-0.67
0.12
-0.69

> <PUBCHEM_SHAPE_SELFOVERLAP>
987.56

> <PUBCHEM_SHAPE_VOLUME>
243.1

> <PUBCHEM_COORDINATE_TYPE>
2
5
10

$$$$
163197295
  -OEChem-01162405103D

 24 24  0     0  0  0  0  0  0999 V2000
   -1.2407   -0.0087    0.7982 N   0  0  0  0  0  0  0  0  0  0  0  0
    0.1258   -2.4480    0.3963 N   0  0  0  0  0  0  0  0  0  0  0  0
   -3.5409   -0.0198    0.0774 N   0  0  0  0  0  0  0  0  0  0  0  0
   -1.8481   -0.0207   -1.4530 N   0  0  0  0  0  0  0  0  0  0  0  0
    0.7618    1.2052    0.1834 C   0  0  0  0  0  0  0  0  0  0  0  0
    0.1017   -0.0060    0.3904 C   0  0  0  0  0  0  0  0  0  0  0  0
    0.7762   -1.2106    0.1920 C   0  0  0  0  0  0  0  0  0  0  0  0
    2.0964    1.2118   -0.2219 C   0  0  0  0  0  0  0  0  0  0  0  0
    2.1109   -1.2041   -0.2133 C   0  0  0  0  0  0  0  0  0  0  0  0
    0.0628    2.5096    0.3887 C   0  0  0  0  0  0  0  0  0  0  0  0
    2.7710    0.0072   -0.4203 C   0  0  0  0  0  0  0  0  0  0  0  0
   -2.1768   -0.0159   -0.1178 C   0  0  0  0  0  0  0  0  0  0  0  0
    2.6252    2.1465   -0.3890 H   0  0  0  0  0  0  0  0  0  0  0  0
    2.6485   -2.1356   -0.3718 H   0  0  0  0  0  0  0  0  0  0  0  0
   -0.6848    2.6701   -0.3946 H   0  0  0  0  0  0  0  0  0  0  0  0
    0.7617    3.3528    0.3580 H   0  0  0  0  0  0  0  0  0  0  0  0
   -0.4268    2.5387    1.3678 H   0  0  0  0  0  0  0  0  0  0  0  0
    3.8100    0.0122   -0.7363 H   0  0  0  0  0  0  0  0  0  0  0  0
    0.6267   -3.3144    0.2508 H   0  0  0  0  0  0  0  0  0  0  0  0
   -0.8384   -2.4663    0.7006 H   0  0  0  0  0  0  0  0  0  0  0  0
   -3.9356   -0.0169    1.0116 H   0  0  0  0  0  0  0  0  0  0  0  0
   -4.1881   -0.0252   -0.7033 H   0  0  0  0  0  0  0  0  0  0  0  0
   -2.5752   -0.0257   -2.1608 H   0  0  0  0  0  0  0  0  0  0  0  0
   -0.8953   -0.0179   -1.7975 H   0  0  0  0  0  0  0  0  0  0  0  0
  1  6  1  0  0  0  0
  1 12  2  0  0  0  0
  2  7  1  0  0  0  0
  2 19  1  0  0  0  0
  2 20  1  0  0  0  0
  3 12  1  0  0  0  0
  3 21  1  0  0  0  0
  3 22  1  0  0  0  0
  4 12  1  0  0  0  0
  4 23  1  0  0  0  0
  4 24  1  0  0  0  0
  5  6  2  0  0  0  0
  5  8  1  0  0  0  0
  5 10  1  0  0  0  0
  6  7  1  0  0  0  0
  7  9  2  0  0  0  0
  8 11  2  0  0  0  0
  8 13  1  0  0  0  0
  9 11  1  0  0  0  0
  9 14  1  0  0  0  0
 10 15  1  0  0  0  0
 10 16  1  0  0  0  0
 10 17  1  0  0  0  0
 11 18  1  0  0  0  0
M  END
> <PUBCHEM_COMPOUND_CID>
163197295

> <PUBCHEM_CONFORMER_RMSD>
0.4

> <PUBCHEM_CONFORMER_DIVERSEORDER>
1
2

> <PUBCHEM_MMFF94_PARTIAL_CHARGES>
21
1 -0.63
10 0.14
11 -0.15
12 0.55
13 0.15
14 0.15
18 0.15
19 0.4
2 -0.9
20 0.4
21 0.4
22 0.4
23 0.4
24 0.4
3 -0.85
4 -0.85
5 -0.14
6 0.18
7 0.1
8 -0.15
9 -0.15

> <PUBCHEM_EFFECTIVE_ROTOR_COUNT>
1

> <PUBCHEM_PHARMACOPHORE_FEATURES>
6
1 2 cation
1 2 donor
1 3 donor
1 4 donor
4 1 3 4 12 cation
6 5 6 7 8 9 11 rings

> <PUBCHEM_HEAVY_ATOM_COUNT>
12

> <PUBCHEM_ATOM_DEF_STEREO_COUNT>
0

> <PUBCHEM_ATOM_UDEF_STEREO_COUNT>
0

> <PUBCHEM_BOND_DEF_STEREO_COUNT>
0

> <PUBCHEM_BOND_UDEF_STEREO_COUNT>
0

> <PUBCHEM_ISOTOPIC_ATOM_COUNT>
0

> <PUBCHEM_COMPONENT_COUNT>
1

> <PUBCHEM_CACTVS_TAUTO_COUNT>
-1

> <PUBCHEM_CONFORMER_ID>
09BA316F00000001

> <PUBCHEM_MMFF94_ENERGY>
52.1572

> <PUBCHEM_FEATURE_SELFOVERLAP>
30.502

> <PUBCHEM_SHAPE_FINGERPRINT>
1 1 18334010609764378038
10353120 184 18269005206044807214
11031198 65 18334301971961305181
11206711 2 18193009127297283612
11471102 20 18409164385939153205
12897270 3 18335701607118625127
14128692 85 17703501181617263087
15557651 10 17749658701083763253
16945 1 18410863148457264322
17775402 16 18408600340399942716
17844478 74 17822301175579104373
18185500 45 18271804575402157739
193761 8 17761777260742192928
20201158 50 18260547796937344511
20606313 2 18409728473837420333
20645476 183 17532673410622605038
20645477 70 18339355276401481159
20871998 184 16249684739204179947
21040471 1 18264770054858545688
21501502 16 17976258259438272886
23388829 49 18048016498867505650
23402655 69 18411411796581222277
23552423 10 18047762489947845458
23559900 14 17118890549378976374
25 1 18334858294801255093
2748010 2 17980212090804534468
29004967 10 18409730634010635547
3060560 45 18337657703040314823
353137 74 18337671897643412016
528886 8 18411418414392374921
63268167 104 18343022206954723961
81228 2 16678915438687978539

> <PUBCHEM_SHAPE_MULTIPOLES>
227.03
3.81
2.1
0.85
2.06
0.26
0.18
-0.21
0.7
-0.68
-0.37
0.25
-0.01
-0.03

> <PUBCHEM_SHAPE_SELFOVERLAP>
473.046

> <PUBCHEM_SHAPE_VOLUME>
128.2

> <PUBCHEM_COORDINATE_TYPE>
2
5
10

$$$$
163197294
  -OEChem-01162405103D

 68 71  0     0  0  0  0  0  0999 V2000
    0.1955   -3.7034    1.1619 O   0  0  0  0  0  0  0  0  0  0  0  0
   -9.2807    0.7398    0.8863 O   0  0  0  0  0  0  0  0  0  0  0  0
   -8.4131    2.5030    2.0281 O   0  0  0  0  0  0  0  0  0  0  0  0
   -0.3940   -2.1596   -0.4915 N   0  3  0  0  0  0  0  0  0  0  0  0
   -2.4712   -0.1602   -0.9694 N   0  0  0  0  0  0  0  0  0  0  0  0
    6.0484    0.7014    0.5813 N   0  0  0  0  0  0  0  0  0  0  0  0
    7.2613    3.0512   -0.5876 N   0  0  0  0  0  0  0  0  0  0  0  0
   -0.0706   -0.6809   -0.6906 C   0  0  0  0  0  0  0  0  0  0  0  0
   -1.8081   -2.3056    0.0651 C   0  0  0  0  0  0  0  0  0  0  0  0
   -1.1347   -0.0044   -1.5530 C   0  0  0  0  0  0  0  0  0  0  0  0
   -2.8176   -1.5778   -0.8210 C   0  0  0  0  0  0  0  0  0  0  0  0
   -0.2584   -2.9018   -1.7762 C   0  0  0  0  0  0  0  0  0  0  0  0
    0.6047   -2.7747    0.4827 C   0  0  0  0  0  0  0  0  0  0  0  0
   -3.4716    0.5319   -1.7812 C   0  0  0  0  0  0  0  0  0  0  0  0
    1.9853   -2.2513    0.5747 C   0  0  0  0  0  0  0  0  0  0  0  0
   -4.7295    0.8115   -1.0024 C   0  0  0  0  0  0  0  0  0  0  0  0
    7.2852    1.2726    1.1278 C   0  0  0  0  0  0  0  0  0  0  0  0
    5.9503    0.9740   -0.8579 C   0  0  0  0  0  0  0  0  0  0  0  0
    5.9798   -0.7348    0.8433 C   0  0  0  0  0  0  0  0  0  0  0  0
    2.9891   -2.7834   -0.2347 C   0  0  0  0  0  0  0  0  0  0  0  0
    2.2832   -1.2252    1.4713 C   0  0  0  0  0  0  0  0  0  0  0  0
    7.3597    2.7783    0.8514 C   0  0  0  0  0  0  0  0  0  0  0  0
    6.0247    2.4796   -1.1344 C   0  0  0  0  0  0  0  0  0  0  0  0
    4.5884   -1.2633    0.7493 C   0  0  0  0  0  0  0  0  0  0  0  0
    4.2906   -2.2895   -0.1474 C   0  0  0  0  0  0  0  0  0  0  0  0
    3.5847   -0.7312    1.5586 C   0  0  0  0  0  0  0  0  0  0  0  0
   -4.7626    1.8628   -0.0862 C   0  0  0  0  0  0  0  0  0  0  0  0
   -5.8613    0.0197   -1.1966 C   0  0  0  0  0  0  0  0  0  0  0  0
    7.3291    4.4875   -0.8493 C   0  0  0  0  0  0  0  0  0  0  0  0
   -5.9276    2.1223    0.6357 C   0  0  0  0  0  0  0  0  0  0  0  0
   -7.0262    0.2792   -0.4746 C   0  0  0  0  0  0  0  0  0  0  0  0
   -7.0593    1.3305    0.4415 C   0  0  0  0  0  0  0  0  0  0  0  0
   -8.2735    1.6017    1.1949 C   0  0  0  0  0  0  0  0  0  0  0  0
    0.9083   -0.5923   -1.1745 H   0  0  0  0  0  0  0  0  0  0  0  0
   -0.0457   -0.2102    0.2993 H   0  0  0  0  0  0  0  0  0  0  0  0
   -1.8050   -1.8843    1.0785 H   0  0  0  0  0  0  0  0  0  0  0  0
   -2.0490   -3.3737    0.1203 H   0  0  0  0  0  0  0  0  0  0  0  0
   -1.1027   -0.3743   -2.5849 H   0  0  0  0  0  0  0  0  0  0  0  0
   -0.8828    1.0628   -1.5998 H   0  0  0  0  0  0  0  0  0  0  0  0
   -3.7878   -1.6784   -0.3213 H   0  0  0  0  0  0  0  0  0  0  0  0
   -2.9215   -2.0736   -1.7932 H   0  0  0  0  0  0  0  0  0  0  0  0
   -0.9758   -2.5490   -2.5188 H   0  0  0  0  0  0  0  0  0  0  0  0
   -0.4319   -3.9675   -1.5907 H   0  0  0  0  0  0  0  0  0  0  0  0
    0.7520   -2.7595   -2.1720 H   0  0  0  0  0  0  0  0  0  0  0  0
   -3.0864    1.5070   -2.1118 H   0  0  0  0  0  0  0  0  0  0  0  0
   -3.6953   -0.0155   -2.7071 H   0  0  0  0  0  0  0  0  0  0  0  0
    8.1672    0.7738    0.7035 H   0  0  0  0  0  0  0  0  0  0  0  0
    7.3163    1.1241    2.2141 H   0  0  0  0  0  0  0  0  0  0  0  0
    4.9954    0.6094   -1.2543 H   0  0  0  0  0  0  0  0  0  0  0  0
    6.7494    0.4612   -1.4107 H   0  0  0  0  0  0  0  0  0  0  0  0
    6.6685   -1.2898    0.1919 H   0  0  0  0  0  0  0  0  0  0  0  0
    6.3154   -0.9470    1.8685 H   0  0  0  0  0  0  0  0  0  0  0  0
    2.7708   -3.5868   -0.9332 H   0  0  0  0  0  0  0  0  0  0  0  0
    1.5120   -0.8089    2.1141 H   0  0  0  0  0  0  0  0  0  0  0  0
    8.3168    3.1522    1.2349 H   0  0  0  0  0  0  0  0  0  0  0  0
    6.5624    3.2945    1.4035 H   0  0  0  0  0  0  0  0  0  0  0  0
    5.1418    2.9766   -0.7097 H   0  0  0  0  0  0  0  0  0  0  0  0
    5.9945    2.6327   -2.2200 H   0  0  0  0  0  0  0  0  0  0  0  0
    5.0620   -2.7141   -0.7842 H   0  0  0  0  0  0  0  0  0  0  0  0
    3.8021    0.0632    2.2679 H   0  0  0  0  0  0  0  0  0  0  0  0
   -3.8871    2.4866    0.0741 H   0  0  0  0  0  0  0  0  0  0  0  0
   -5.8486   -0.8023   -1.9074 H   0  0  0  0  0  0  0  0  0  0  0  0
    7.3009    4.6835   -1.9269 H   0  0  0  0  0  0  0  0  0  0  0  0
    6.5049    5.0348   -0.3776 H   0  0  0  0  0  0  0  0  0  0  0  0
    8.2738    4.9013   -0.4795 H   0  0  0  0  0  0  0  0  0  0  0  0
   -5.9328    2.9459    1.3449 H   0  0  0  0  0  0  0  0  0  0  0  0
   -7.8841   -0.3619   -0.6567 H   0  0  0  0  0  0  0  0  0  0  0  0
  -10.0948    0.9310    1.3991 H   0  0  0  0  0  0  0  0  0  0  0  0
  1 13  2  0  0  0  0
  2 33  1  0  0  0  0
  2 68  1  0  0  0  0
  3 33  2  0  0  0  0
  4  8  1  0  0  0  0
  4  9  1  0  0  0  0
  4 12  1  0  0  0  0
  4 13  1  0  0  0  0
  5 10  1  0  0  0  0
  5 11  1  0  0  0  0
  5 14  1  0  0  0  0
  6 17  1  0  0  0  0
  6 18  1  0  0  0  0
  6 19  1  0  0  0  0
  7 22  1  0  0  0  0
  7 23  1  0  0  0  0
  7 29  1  0  0  0  0
  8 10  1  0  0  0  0
  8 34  1  0  0  0  0
  8 35  1  0  0  0  0
  9 11  1  0  0  0  0
  9 36  1  0  0  0  0
  9 37  1  0  0  0  0
 10 38  1  0  0  0  0
 10 39  1  0  0  0  0
 11 40  1  0  0  0  0
 11 41  1  0  0  0  0
 12 42  1  0  0  0  0
 12 43  1  0  0  0  0
 12 44  1  0  0  0  0
 13 15  1  0  0  0  0
 14 16  1  0  0  0  0
 14 45  1  0  0  0  0
 14 46  1  0  0  0  0
 15 20  2  0  0  0  0
 15 21  1  0  0  0  0
 16 27  2  0  0  0  0
 16 28  1  0  0  0  0
 17 22  1  0  0  0  0
 17 47  1  0  0  0  0
 17 48  1  0  0  0  0
 18 23  1  0  0  0  0
 18 49  1  0  0  0  0
 18 50  1  0  0  0  0
 19 24  1  0  0  0  0
 19 51  1  0  0  0  0
 19 52  1  0  0  0  0
 20 25  1  0  0  0  0
 20 53  1  0  0  0  0
 21 26  2  0  0  0  0
 21 54  1  0  0  0  0
 22 55  1  0  0  0  0
 22 56  1  0  0  0  0
 23 57  1  0  0  0  0
 23 58  1  0  0  0  0
 24 25  2  0  0  0  0
 24 26  1  0  0  0  0
 25 59  1  0  0  0  0
 26 60  1  0  0  0  0
 27 30  1  0  0  0  0
 27 61  1  0  0  0  0
 28 31  2  0  0  0  0
 28 62  1  0  0  0  0
 29 63  1  0  0  0  0
 29 64  1  0  0  0  0
 29 65  1  0  0  0  0
 30 32  2  0  0  0  0
 30 66  1  0  0  0  0
 31 32  1  0  0  0  0
 31 67  1  0  0  0  0
 32 33  1  0  0  0  0
M  CHG  1   4   1
M  END
> <PUBCHEM_COMPOUND_CID>
163197294

> <PUBCHEM_CONFORMER_RMSD>
1.2

> <PUBCHEM_CONFORMER_DIVERSEORDER>
4
78
69
71
126
107
148
7
86
48
139
200
199
119
204
206
113
88
80
99
45
68
118
81
112
156
161
182
145
28
197
169
72
188
38
93
185
192
178
191
154
61
21
147
85
87
184
106
96
189
152
101
198
146
54
12
153
110
136
157
176
158
20
83
186
160
24
127
57
105
129
143
90
30
151
142
205
65
79
137
76
9
168
102
149
52
42
60
190
208
131
40
133
66
150
202
13
77
56
25
130
183
177
121
23
44
138
82
144
203
111
195
171
32
58
128
104
122
109
159
132
155
16
108
2
33
103
41
162
75
187
173
166
63
140
95
123
34
35
43
172
201
27
67
73
50
84
196
74
115
116
64
163
19
141
46
51
36
22
70
181
193
17
62
10
53
89
167
125
14
180
100
49
94
175
194
134
15
135
5
37
124
8
97
18
11
174
26
120
98
31
29
207
39
91
1
117
47
170
92
164
165
114
55
59
179
3
6

> <PUBCHEM_MMFF94_PARTIAL_CHARGES>
42
1 -0.57
10 0.27
11 0.27
12 0.5
13 0.88
14 0.41
15 0.09
16 -0.14
17 0.27
18 0.27
19 0.41
2 -0.65
20 -0.15
21 -0.15
22 0.27
23 0.27
24 -0.14
25 -0.15
26 -0.15
27 -0.15
28 -0.15
29 0.27
3 -0.57
30 -0.15
31 -0.15
32 0.09
33 0.63
4 -0.91
5 -0.81
53 0.15
54 0.15
59 0.15
6 -0.81
60 0.15
61 0.15
62 0.15
66 0.15
67 0.15
68 0.5
7 -0.81
8 0.5
9 0.5

> <PUBCHEM_EFFECTIVE_ROTOR_COUNT>
9.4

> <PUBCHEM_PHARMACOPHORE_FEATURES>
11
1 1 acceptor
1 2 acceptor
1 3 acceptor
1 5 cation
1 6 cation
1 7 cation
3 2 3 33 anion
6 15 20 21 24 25 26 rings
6 16 27 28 30 31 32 rings
6 4 5 8 9 10 11 rings
6 6 7 17 18 22 23 rings

> <PUBCHEM_HEAVY_ATOM_COUNT>
33

> <PUBCHEM_ATOM_DEF_STEREO_COUNT>
0

> <PUBCHEM_ATOM_UDEF_STEREO_COUNT>
0

> <PUBCHEM_BOND_DEF_STEREO_COUNT>
0

> <PUBCHEM_BOND_UDEF_STEREO_COUNT>
0

> <PUBCHEM_ISOTOPIC_ATOM_COUNT>
0

> <PUBCHEM_COMPONENT_COUNT>
1

> <PUBCHEM_CACTVS_TAUTO_COUNT>
-1

> <PUBCHEM_CONFORMER_ID>
09BA316E00000004

> <PUBCHEM_MMFF94_ENERGY>
101.5001

> <PUBCHEM_FEATURE_SELFOVERLAP>
55.882

> <PUBCHEM_SHAPE_FINGERPRINT>
10 15 17748827397379200599
10055352 69 18270966872607625369
10319688 67 16660364792268519251
10533779 1 18263626515980922604
10674148 151 17203320101274810778
10693767 8 9655282727175313765
10794284 68 18129098004442679711
10838868 160 18340477971565960064
10920273 25 18342748424370416400
10981352 41 10953733388175836872
11017883 126 18041285472944635133
11273773 42 18341604957978196566
11399510 152 15937510599620131568
1200032 147 18334855039680249562
12013929 112 13038910981058612193
12125137 17 18412268349835061464
12539765 74 18060143106878073143
12677640 9 18047189940758348879
13627175 23 18342461439071874073
13726171 33 18189614033460620376
13782708 43 7853573521600920550
13885169 86 18334290989888262772
13947947 140 8862680031082428828
14150022 121 18189336947772058011
14394314 77 18263081170855757124
14537116 161 16917064425988760496
14565420 104 18114177497802735290
14617042 71 18412266112874200105
14747281 78 17918277567132061944
14849402 71 18413106182602057217
15183329 4 10303801082929454439
15188451 53 12324246040105471847
15198563 99 13326580635860022971
15350500 16 9007060149667685648
15357212 105 18410016563338476374
15519825 34 15430324675955483641
15684389 69 18337381730449622375
15685185 35 18339081613416634168
15840311 113 18337114475149383766
16126227 98 18410290341554132523
16993427 108 7925919166199368206
16994733 274 17846779607179913053
17899979 129 18342177765694308950
18393751 57 18040432179191151875
19302320 297 18187641423822486504
19304671 126 18131078156227766876
19309040 13 18343017826879659550
19315092 285 10737281325908706454
19438510 23 18187358883466624330
19841028 212 8718822081187400712
2026 5 8646772192769415873
20691028 202 18338228367013553184
21307412 95 11815605428619654157
21315764 119 13973672945383465245
21344244 78 15791738468400118278
21521721 280 18408603643356595411
21647283 7 17677321706570620220
21772528 278 18342447150148515487
21792964 463 18129395799672493185
21987483 16 17603866689768788387
22002106 203 9727367792842912916
23522609 53 18131632245309942359
23524908 199 10447925037012306929
24771293 8 18335416893747103943
2747138 104 17531821138813298007
32027 91 10015284871697090071
3418910 222 17988931051095280041
3504750 166 7997700822107102047
3610482 184 17917418843918451967
3711267 37 18131073684639525121
3986486 107 17418381320167559692
406291 66 9007068958830420808
4112364 45 17458354077931625308
4169191 19 18409440385038452741
4258327 124 18342178886369205339
437795 70 15769777952765107792
4403749 210 18259982670533269755
4408954 87 16443069400256275819
474113 269 9007065651383538113
4760202 70 18341603842405304455
5109719 28 18260547801158556437
5223283 242 18126294039301581790
54076057 255 17703500009328796291
5718773 13 8935004780512130522
5758199 1 18411135814746499995
5911458 16 18273498957397174673
6201320 82 18045793540556486812
6204607 403 18343028808900727089
6703917 75 18060416937615038223
9689198 14 17418088815550828507

> <PUBCHEM_SHAPE_MULTIPOLES>
641.59
27.24
4.52
1.61
19.31
1.01
0
34.22
-7.75
-7.54
0.09
0.89
0.18
-3.67

> <PUBCHEM_SHAPE_SELFOVERLAP>
1357.523

> <PUBCHEM_SHAPE_VOLUME>
359.6

> <PUBCHEM_COORDINATE_TYPE>
2
5
10

$$$$
119576528
  -OEChem-01162405103D

 51 53  0     1  0  0  0  0  0999 V2000
   -3.4448    2.3508   -0.0164 O   0  0  0  0  0  0  0  0  0  0  0  0
    3.5760    0.4634   -0.2823 N   0  0  0  0  0  0  0  0  0  0  0  0
    5.6330   -1.4849    0.2930 N   0  0  0  0  0  0  0  0  0  0  0  0
   -3.3637    0.0341    0.2867 N   0  0  0  0  0  0  0  0  0  0  0  0
   -4.6381   -2.4835   -0.1840 N   0  0  0  0  0  0  0  0  0  0  0  0
    3.5924   -0.2759    0.9858 C   0  0  0  0  0  0  0  0  0  0  0  0
    4.9401    0.6196   -0.8016 C   0  0  0  0  0  0  0  0  0  0  0  0
   -5.3608   -1.2307   -0.4411 C   0  0  2  0  0  0  0  0  0  0  0  0
    4.2688   -1.6401    0.8127 C   0  0  0  0  0  0  0  0  0  0  0  0
    5.6178   -0.7441   -0.9743 C   0  0  0  0  0  0  0  0  0  0  0  0
   -4.8113   -0.1068    0.4445 C   0  0  0  0  0  0  0  0  0  0  0  0
   -2.6060   -1.2149    0.4264 C   0  0  0  0  0  0  0  0  0  0  0  0
    2.9315    1.7646   -0.1164 C   0  0  0  0  0  0  0  0  0  0  0  0
   -3.2062   -2.3211   -0.4389 C   0  0  0  0  0  0  0  0  0  0  0  0
    1.4318    1.6444   -0.0594 C   0  0  0  0  0  0  0  0  0  0  0  0
   -6.8491   -1.4450   -0.1774 C   0  0  0  0  0  0  0  0  0  0  0  0
   -2.8103    1.3033    0.1008 C   0  0  0  0  0  0  0  0  0  0  0  0
    6.2760   -2.7867    0.1257 C   0  0  0  0  0  0  0  0  0  0  0  0
   -1.3469    1.4215    0.0451 C   0  0  0  0  0  0  0  0  0  0  0  0
    0.7050    1.4279   -1.2302 C   0  0  0  0  0  0  0  0  0  0  0  0
    0.7692    1.7496    1.1636 C   0  0  0  0  0  0  0  0  0  0  0  0
   -0.6843    1.3164   -1.1779 C   0  0  0  0  0  0  0  0  0  0  0  0
   -0.6202    1.6382    1.2157 C   0  0  0  0  0  0  0  0  0  0  0  0
    4.1121    0.2944    1.7679 H   0  0  0  0  0  0  0  0  0  0  0  0
    2.5726   -0.4621    1.3401 H   0  0  0  0  0  0  0  0  0  0  0  0
    4.9119    1.1122   -1.7813 H   0  0  0  0  0  0  0  0  0  0  0  0
    5.5423    1.2513   -0.1344 H   0  0  0  0  0  0  0  0  0  0  0  0
   -5.2341   -0.9553   -1.4965 H   0  0  0  0  0  0  0  0  0  0  0  0
    4.2995   -2.1364    1.7904 H   0  0  0  0  0  0  0  0  0  0  0  0
    3.6645   -2.2698    0.1455 H   0  0  0  0  0  0  0  0  0  0  0  0
    5.1005   -1.3166   -1.7563 H   0  0  0  0  0  0  0  0  0  0  0  0
    6.6458   -0.5771   -1.3181 H   0  0  0  0  0  0  0  0  0  0  0  0
   -5.3145    0.8374    0.2097 H   0  0  0  0  0  0  0  0  0  0  0  0
   -4.9963   -0.3166    1.5059 H   0  0  0  0  0  0  0  0  0  0  0  0
   -2.6470   -1.4944    1.4864 H   0  0  0  0  0  0  0  0  0  0  0  0
   -1.5536   -1.0814    0.1667 H   0  0  0  0  0  0  0  0  0  0  0  0
    3.3174    2.3023    0.7604 H   0  0  0  0  0  0  0  0  0  0  0  0
    3.1597    2.4141   -0.9735 H   0  0  0  0  0  0  0  0  0  0  0  0
   -3.0423   -2.0986   -1.5007 H   0  0  0  0  0  0  0  0  0  0  0  0
   -2.6948   -3.2655   -0.2241 H   0  0  0  0  0  0  0  0  0  0  0  0
   -5.0065   -3.2204   -0.7848 H   0  0  0  0  0  0  0  0  0  0  0  0
   -7.0361   -1.7369    0.8622 H   0  0  0  0  0  0  0  0  0  0  0  0
   -7.2546   -2.2288   -0.8269 H   0  0  0  0  0  0  0  0  0  0  0  0
   -7.4120   -0.5264   -0.3751 H   0  0  0  0  0  0  0  0  0  0  0  0
    6.3256   -3.3167    1.0834 H   0  0  0  0  0  0  0  0  0  0  0  0
    7.3087   -2.6637   -0.2191 H   0  0  0  0  0  0  0  0  0  0  0  0
    5.7459   -3.4222   -0.5929 H   0  0  0  0  0  0  0  0  0  0  0  0
    1.2098    1.3438   -2.1890 H   0  0  0  0  0  0  0  0  0  0  0  0
    1.3233    1.9177    2.0832 H   0  0  0  0  0  0  0  0  0  0  0  0
   -1.2412    1.1466   -2.0958 H   0  0  0  0  0  0  0  0  0  0  0  0
   -1.1266    1.7209    2.1739 H   0  0  0  0  0  0  0  0  0  0  0  0
  1 17  2  0  0  0  0
  2  6  1  0  0  0  0
  2  7  1  0  0  0  0
  2 13  1  0  0  0  0
  3  9  1  0  0  0  0
  3 10  1  0  0  0  0
  3 18  1  0  0  0  0
  4 11  1  0  0  0  0
  4 12  1  0  0  0  0
  4 17  1  0  0  0  0
  5  8  1  0  0  0  0
  5 14  1  0  0  0  0
  5 41  1  0  0  0  0
  6  9  1  0  0  0  0
  6 24  1  0  0  0  0
  6 25  1  0  0  0  0
  7 10  1  0  0  0  0
  7 26  1  0  0  0  0
  7 27  1  0  0  0  0
  8 11  1  0  0  0  0
  8 16  1  0  0  0  0
  8 28  1  0  0  0  0
  9 29  1  0  0  0  0
  9 30  1  0  0  0  0
 10 31  1  0  0  0  0
 10 32  1  0  0  0  0
 11 33  1  0  0  0  0
 11 34  1  0  0  0  0
 12 14  1  0  0  0  0
 12 35  1  0  0  0  0
 12 36  1  0  0  0  0
 13 15  1  0  0  0  0
 13 37  1  0  0  0  0
 13 38  1  0  0  0  0
 14 39  1  0  0  0  0
 14 40  1  0  0  0  0
 15 20  2  0  0  0  0
 15 21  1  0  0  0  0
 16 42  1  0  0  0  0
 16 43  1  0  0  0  0
 16 44  1  0  0  0  0
 17 19  1  0  0  0  0
 18 45  1  0  0  0  0
 18 46  1  0  0  0  0
 18 47  1  0  0  0  0
 19 22  2  0  0  0  0
 19 23  1  0  0  0  0
 20 22  1  0  0  0  0
 20 48  1  0  0  0  0
 21 23  2  0  0  0  0
 21 49  1  0  0  0  0
 22 50  1  0  0  0  0
 23 51  1  0  0  0  0
M  END
> <PUBCHEM_COMPOUND_CID>
119576528

> <PUBCHEM_CONFORMER_RMSD>
0.8

> <PUBCHEM_CONFORMER_DIVERSEORDER>
1
53
97
71
109
123
56
121
102
114
47
92
34
104
99
25
96
76
95
101
110
64
122
106
61
105
93
10
118
72
38
79
111
14
112
83
75
115
70
22
60
108
74
58
37
52
51
24
117
54
31
86
59
119
73
98
55
49
63
77
94
13
43
82
8
40
116
50
26
107
87
80
120
68
89
2
65
17
85
91
45
27
39
84
103
16
44
11
32
30
7
15
23
46
69
36
5
28
35
66
6
90
18
19
100
78
41
33
12
20
9
42
62
21
67
88
48
4
57
113
81
3
29

> <PUBCHEM_MMFF94_PARTIAL_CHARGES>
27
1 -0.57
10 0.27
11 0.3
12 0.3
13 0.41
14 0.27
15 -0.14
17 0.54
18 0.27
19 0.09
2 -0.81
20 -0.15
21 -0.15
22 -0.15
23 -0.15
3 -0.81
4 -0.66
41 0.36
48 0.15
49 0.15
5 -0.9
50 0.15
51 0.15
6 0.27
7 0.27
8 0.27
9 0.27

> <PUBCHEM_EFFECTIVE_ROTOR_COUNT>
6.4

> <PUBCHEM_PHARMACOPHORE_FEATURES>
8
1 1 acceptor
1 2 cation
1 3 cation
1 5 cation
1 5 donor
6 15 19 20 21 22 23 rings
6 2 3 6 7 9 10 rings
6 4 5 8 11 12 14 rings

> <PUBCHEM_HEAVY_ATOM_COUNT>
23

> <PUBCHEM_ATOM_DEF_STEREO_COUNT>
0

> <PUBCHEM_ATOM_UDEF_STEREO_COUNT>
1

> <PUBCHEM_BOND_DEF_STEREO_COUNT>
0

> <PUBCHEM_BOND_UDEF_STEREO_COUNT>
0

> <PUBCHEM_ISOTOPIC_ATOM_COUNT>
0

> <PUBCHEM_COMPONENT_COUNT>
1

> <PUBCHEM_CACTVS_TAUTO_COUNT>
1

> <PUBCHEM_CONFORMER_ID>
072097D000000001

> <PUBCHEM_MMFF94_ENERGY>
49.9398

> <PUBCHEM_FEATURE_SELFOVERLAP>
40.599

> <PUBCHEM_SHAPE_FINGERPRINT>
10 15 11383831593153120119
10074138 170 17271734879840612944
10622 236 17461984489486655226
117089 54 17985842440917457310
11796584 16 18269275673300205196
12107183 9 18267873774305191713
12596602 18 17775286066917774336
12633257 1 17560256837269018953
12760667 363 18343300383987323407
13103583 49 17917725590387708609
13167823 11 18334860510983599120
13533116 47 18338516455670284753
13551218 46 18411982481549327175
14216079 64 18413107286466447255
14251751 18 18412260619246453346
14347332 77 18335135384674690661
14420673 8 18340209570364599254
14739800 52 9439125299801410334
14848178 5 18410847789485577578
14866123 147 18342745075139645809
15183329 4 18040426682096703981
15475509 35 18201432597536275834
15510800 12 17917153780486851406
15519825 34 14691988333164602255
16120349 21 18269845228897204851
17857418 61 18411138056091343221
17959699 21 8646777689920872596
1813 80 17749100136308197997
19784866 240 18409453587393347745
20028762 73 18272368672439843542
20403669 9 18343588459806736759
21033648 29 14764359201689792937
21637258 2 18412258437065710100
21641784 216 14635134716816178535
22950370 63 18409170991641325340
23522609 53 18123224322109731201
23559900 14 18340197600718260273
3004659 81 18333730247131274136
316301 35 18342171215452106714
33382 64 18410859879723590016
351380 3 18409166618937226650
4325135 7 18336266847102381916
439807 62 18335140890717327595
44062 13 18336263436059435804
46194498 28 16878504660560696508
463206 1 18268710678773955195
465052 167 18272655657874594132
5104073 3 17846499235762378408
543368 44 8646769993756313159
559249 180 18337952299263355545
5718773 13 18129655435225689415
59682541 35 10807930523176992559
59755656 520 18265050246405861429
76465 3 18411699897964677993
7970288 3 18340205164414053206
960060 61 17749112218488629092

> <PUBCHEM_SHAPE_MULTIPOLES>
447.54
15.85
2.96
1.06
1.71
0.98
0
14.22
1.21
0.19
-0.06
0.55
-0.27
-0.85

> <PUBCHEM_SHAPE_SELFOVERLAP>
927.078

> <PUBCHEM_SHAPE_VOLUME>
255.8

> <PUBCHEM_COORDINATE_TYPE>
2
5
10

$$$$
163197296
  -OEChem-01162405103D

 91 97  0     0  0  0  0  0  0999 V2000
    7.2952   -3.7197    1.0554 O   0  0  0  0  0  0  0  0  0  0  0  0
   -3.6540   -5.0654   -0.9218 O   0  0  0  0  0  0  0  0  0  0  0  0
    8.9913    2.2232   -0.2129 N   0  0  0  0  0  0  0  0  0  0  0  0
    5.1671   -2.9069    0.5370 N   0  0  0  0  0  0  0  0  0  0  0  0
    2.3137   -3.2649    0.2084 N   0  0  0  0  0  0  0  0  0  0  0  0
   10.3497    4.6436   -0.8887 N   0  0  0  0  0  0  0  0  0  0  0  0
   -4.0370   -2.8666   -0.1979 N   0  0  0  0  0  0  0  0  0  0  0  0
   -8.0766   -0.2445    0.4310 N   0  0  0  0  0  0  0  0  0  0  0  0
   -8.5170    2.0225    0.8242 N   0  0  0  0  0  0  0  0  0  0  0  0
   -6.4261    1.3149   -0.1426 N   0  0  0  0  0  0  0  0  0  0  0  0
   -4.5929    6.6212    0.2300 N   0  0  0  0  0  0  0  0  0  0  0  0
    4.5274   -4.1967    0.7675 C   0  0  0  0  0  0  0  0  0  0  0  0
    4.2901   -1.7859    0.1922 C   0  0  0  0  0  0  0  0  0  0  0  0
   10.4398    2.3349   -0.0039 C   0  0  0  0  0  0  0  0  0  0  0  0
    8.4099    3.1395   -1.1980 C   0  0  0  0  0  0  0  0  0  0  0  0
    3.2411   -4.3709   -0.0332 C   0  0  0  0  0  0  0  0  0  0  0  0
    2.8520   -1.9837    0.6668 C   0  0  0  0  0  0  0  0  0  0  0  0
   10.8472    3.7957    0.1997 C   0  0  0  0  0  0  0  0  0  0  0  0
    8.8864    4.5730   -0.9533 C   0  0  0  0  0  0  0  0  0  0  0  0
    8.3877    0.9809    0.0164 C   0  0  0  0  0  0  0  0  0  0  0  0
    6.5514   -2.8009    0.7144 C   0  0  0  0  0  0  0  0  0  0  0  0
    0.9422   -3.4387    0.0282 C   0  0  0  0  0  0  0  0  0  0  0  0
    7.1853   -1.4945    0.4734 C   0  0  0  0  0  0  0  0  0  0  0  0
   10.7905    6.0261   -0.7063 C   0  0  0  0  0  0  0  0  0  0  0  0
    8.4774    0.3834    1.2737 C   0  0  0  0  0  0  0  0  0  0  0  0
    7.6968    0.3406   -1.0123 C   0  0  0  0  0  0  0  0  0  0  0  0
    7.8761   -0.8543    1.5021 C   0  0  0  0  0  0  0  0  0  0  0  0
    7.0956   -0.8971   -0.7838 C   0  0  0  0  0  0  0  0  0  0  0  0
    0.0392   -2.7025    0.7949 C   0  0  0  0  0  0  0  0  0  0  0  0
    0.4732   -4.3491   -0.9188 C   0  0  0  0  0  0  0  0  0  0  0  0
   -1.3330   -2.8766    0.6148 C   0  0  0  0  0  0  0  0  0  0  0  0
   -0.8990   -4.5232   -1.0990 C   0  0  0  0  0  0  0  0  0  0  0  0
   -1.8021   -3.7869   -0.3323 C   0  0  0  0  0  0  0  0  0  0  0  0
   -3.2327   -3.9688   -0.5197 C   0  0  0  0  0  0  0  0  0  0  0  0
   -5.4483   -2.7579   -0.2554 C   0  0  0  0  0  0  0  0  0  0  0  0
   -6.0719   -1.5654    0.1114 C   0  0  0  0  0  0  0  0  0  0  0  0
   -6.2144   -3.8446   -0.6772 C   0  0  0  0  0  0  0  0  0  0  0  0
   -7.4617   -1.4596    0.0564 C   0  0  0  0  0  0  0  0  0  0  0  0
   -8.2278   -2.5462   -0.3653 C   0  0  0  0  0  0  0  0  0  0  0  0
   -7.6041   -3.7387   -0.7321 C   0  0  0  0  0  0  0  0  0  0  0  0
   -9.7178   -2.4606   -0.4332 C   0  0  0  0  0  0  0  0  0  0  0  0
   -7.6528    1.0959    0.3678 C   0  0  0  0  0  0  0  0  0  0  0  0
   -6.8432    3.6532    0.2469 C   0  0  0  0  0  0  0  0  0  0  0  0
   -8.0783    3.2961    0.7486 C   0  0  0  0  0  0  0  0  0  0  0  0
   -6.0514    2.6102   -0.1885 C   0  0  0  0  0  0  0  0  0  0  0  0
   -6.4083    5.0255    0.1823 C   0  0  0  0  0  0  0  0  0  0  0  0
   -7.3232    6.0598    0.0188 C   0  0  0  0  0  0  0  0  0  0  0  0
   -5.0666    5.3560    0.2822 C   0  0  0  0  0  0  0  0  0  0  0  0
   -6.8744    7.3746   -0.0386 C   0  0  0  0  0  0  0  0  0  0  0  0
   -5.5117    7.6000    0.0706 C   0  0  0  0  0  0  0  0  0  0  0  0
    4.3128   -4.2515    1.8421 H   0  0  0  0  0  0  0  0  0  0  0  0
    5.2282   -5.0065    0.5365 H   0  0  0  0  0  0  0  0  0  0  0  0
    4.3013   -1.7008   -0.9009 H   0  0  0  0  0  0  0  0  0  0  0  0
    4.6796   -0.8535    0.6117 H   0  0  0  0  0  0  0  0  0  0  0  0
   10.7713    1.7646    0.8713 H   0  0  0  0  0  0  0  0  0  0  0  0
   10.9604    1.9184   -0.8760 H   0  0  0  0  0  0  0  0  0  0  0  0
    7.3144    3.1308   -1.1378 H   0  0  0  0  0  0  0  0  0  0  0  0
    8.6974    2.8284   -2.2106 H   0  0  0  0  0  0  0  0  0  0  0  0
    3.4796   -4.4120   -1.1032 H   0  0  0  0  0  0  0  0  0  0  0  0
    2.7928   -5.3302    0.2532 H   0  0  0  0  0  0  0  0  0  0  0  0
    2.8200   -1.9535    1.7629 H   0  0  0  0  0  0  0  0  0  0  0  0
    2.2558   -1.1451    0.2866 H   0  0  0  0  0  0  0  0  0  0  0  0
   10.4685    4.1484    1.1687 H   0  0  0  0  0  0  0  0  0  0  0  0
   11.9423    3.8430    0.2417 H   0  0  0  0  0  0  0  0  0  0  0  0
    8.5150    5.2019   -1.7717 H   0  0  0  0  0  0  0  0  0  0  0  0
    8.4402    4.9519   -0.0237 H   0  0  0  0  0  0  0  0  0  0  0  0
   11.8847    6.0824   -0.6975 H   0  0  0  0  0  0  0  0  0  0  0  0
   10.4513    6.6507   -1.5402 H   0  0  0  0  0  0  0  0  0  0  0  0
   10.4151    6.4623    0.2265 H   0  0  0  0  0  0  0  0  0  0  0  0
    8.9974    0.8728    2.0931 H   0  0  0  0  0  0  0  0  0  0  0  0
    7.6225    0.7669   -2.0086 H   0  0  0  0  0  0  0  0  0  0  0  0
    7.9481   -1.3072    2.4876 H   0  0  0  0  0  0  0  0  0  0  0  0
    6.5826   -1.3925   -1.6040 H   0  0  0  0  0  0  0  0  0  0  0  0
    0.3708   -2.0034    1.5577 H   0  0  0  0  0  0  0  0  0  0  0  0
    1.1488   -4.9265   -1.5437 H   0  0  0  0  0  0  0  0  0  0  0  0
   -1.9961   -2.3124    1.2639 H   0  0  0  0  0  0  0  0  0  0  0  0
   -1.2438   -5.2314   -1.8481 H   0  0  0  0  0  0  0  0  0  0  0  0
   -3.5791   -2.0037    0.0823 H   0  0  0  0  0  0  0  0  0  0  0  0
   -5.4499   -0.7568    0.4820 H   0  0  0  0  0  0  0  0  0  0  0  0
   -5.8055   -4.7991   -0.9764 H   0  0  0  0  0  0  0  0  0  0  0  0
   -8.1870   -4.5948   -1.0620 H   0  0  0  0  0  0  0  0  0  0  0  0
   -9.0435   -0.3268    0.7274 H   0  0  0  0  0  0  0  0  0  0  0  0
  -10.0296   -1.6138   -1.0537 H   0  0  0  0  0  0  0  0  0  0  0  0
  -10.1562   -3.3606   -0.8784 H   0  0  0  0  0  0  0  0  0  0  0  0
  -10.1409   -2.3527    0.5709 H   0  0  0  0  0  0  0  0  0  0  0  0
   -8.7852    4.0192    1.1428 H   0  0  0  0  0  0  0  0  0  0  0  0
   -5.0681    2.7590   -0.6233 H   0  0  0  0  0  0  0  0  0  0  0  0
   -8.3895    5.8808   -0.0883 H   0  0  0  0  0  0  0  0  0  0  0  0
   -4.2886    4.6139    0.4330 H   0  0  0  0  0  0  0  0  0  0  0  0
   -7.5685    8.1968   -0.1703 H   0  0  0  0  0  0  0  0  0  0  0  0
   -5.1106    8.6074    0.0301 H   0  0  0  0  0  0  0  0  0  0  0  0
  1 21  2  0  0  0  0
  2 34  2  0  0  0  0
  3 14  1  0  0  0  0
  3 15  1  0  0  0  0
  3 20  1  0  0  0  0
  4 12  1  0  0  0  0
  4 13  1  0  0  0  0
  4 21  1  0  0  0  0
  5 16  1  0  0  0  0
  5 17  1  0  0  0  0
  5 22  1  0  0  0  0
  6 18  1  0  0  0  0
  6 19  1  0  0  0  0
  6 24  1  0  0  0  0
  7 34  1  0  0  0  0
  7 35  1  0  0  0  0
  7 78  1  0  0  0  0
  8 38  1  0  0  0  0
  8 42  1  0  0  0  0
  8 82  1  0  0  0  0
  9 42  2  0  0  0  0
  9 44  1  0  0  0  0
 10 42  1  0  0  0  0
 10 45  2  0  0  0  0
 11 48  1  0  0  0  0
 11 50  2  0  0  0  0
 12 16  1  0  0  0  0
 12 51  1  0  0  0  0
 12 52  1  0  0  0  0
 13 17  1  0  0  0  0
 13 53  1  0  0  0  0
 13 54  1  0  0  0  0
 14 18  1  0  0  0  0
 14 55  1  0  0  0  0
 14 56  1  0  0  0  0
 15 19  1  0  0  0  0
 15 57  1  0  0  0  0
 15 58  1  0  0  0  0
 16 59  1  0  0  0  0
 16 60  1  0  0  0  0
 17 61  1  0  0  0  0
 17 62  1  0  0  0  0
 18 63  1  0  0  0  0
 18 64  1  0  0  0  0
 19 65  1  0  0  0  0
 19 66  1  0  0  0  0
 20 25  2  0  0  0  0
 20 26  1  0  0  0  0
 21 23  1  0  0  0  0
 22 29  2  0  0  0  0
 22 30  1  0  0  0  0
 23 27  2  0  0  0  0
 23 28  1  0  0  0  0
 24 67  1  0  0  0  0
 24 68  1  0  0  0  0
 24 69  1  0  0  0  0
 25 27  1  0  0  0  0
 25 70  1  0  0  0  0
 26 28  2  0  0  0  0
 26 71  1  0  0  0  0
 27 72  1  0  0  0  0
 28 73  1  0  0  0  0
 29 31  1  0  0  0  0
 29 74  1  0  0  0  0
 30 32  2  0  0  0  0
 30 75  1  0  0  0  0
 31 33  2  0  0  0  0
 31 76  1  0  0  0  0
 32 33  1  0  0  0  0
 32 77  1  0  0  0  0
 33 34  1  0  0  0  0
 35 36  2  0  0  0  0
 35 37  1  0  0  0  0
 36 38  1  0  0  0  0
 36 79  1  0  0  0  0
 37 40  2  0  0  0  0
 37 80  1  0  0  0  0
 38 39  2  0  0  0  0
 39 40  1  0  0  0  0
 39 41  1  0  0  0  0
 40 81  1  0  0  0  0
 41 83  1  0  0  0  0
 41 84  1  0  0  0  0
 41 85  1  0  0  0  0
 43 44  2  0  0  0  0
 43 45  1  0  0  0  0
 43 46  1  0  0  0  0
 44 86  1  0  0  0  0
 45 87  1  0  0  0  0
 46 47  1  0  0  0  0
 46 48  2  0  0  0  0
 47 49  2  0  0  0  0
 47 88  1  0  0  0  0
 48 89  1  0  0  0  0
 49 50  1  0  0  0  0
 49 90  1  0  0  0  0
 50 91  1  0  0  0  0
M  END
> <PUBCHEM_COMPOUND_CID>
163197296

> <PUBCHEM_CONFORMER_RMSD>
1.4

> <PUBCHEM_CONFORMER_DIVERSEORDER>
7
72
27
48
63
64
58
44
19
60
75
71
54
21
68
45
24
76
69
50
51
61
46
47
56
17
26
37
30
74
66
35
59
38
23
73
20
52
34
49
55
28
33
25
62
9
53
31
65
29
43
67
70
12
42
22
57
36
18
41
13
8
39
4
10
16
32
15
11
2
6
40
3
5
1
14

> <PUBCHEM_MMFF94_PARTIAL_CHARGES>
67
1 -0.57
10 -0.62
11 -0.62
12 0.3
13 0.3
14 0.37
15 0.37
16 0.37
17 0.37
18 0.27
19 0.27
2 -0.57
20 0.1
21 0.54
22 0.1
23 0.09
24 0.27
25 -0.15
26 -0.15
27 -0.15
28 -0.15
29 -0.15
3 -0.84
30 -0.15
31 -0.15
32 -0.15
33 0.09
34 0.54
35 0.12
36 -0.15
37 -0.15
38 0.1
39 -0.14
4 -0.66
40 -0.15
41 0.14
42 0.72
44 0.16
45 0.16
47 -0.15
48 0.16
49 -0.15
5 -0.84
50 0.16
6 -0.81
7 -0.55
70 0.15
71 0.15
72 0.15
73 0.15
74 0.15
75 0.15
76 0.15
77 0.15
78 0.37
79 0.15
8 -0.6
80 0.15
81 0.15
82 0.4
86 0.15
87 0.15
88 0.15
89 0.15
9 -0.62
90 0.15
91 0.15

> <PUBCHEM_EFFECTIVE_ROTOR_COUNT>
12.4

> <PUBCHEM_PHARMACOPHORE_FEATURES>
17
1 1 acceptor
1 10 acceptor
1 11 acceptor
1 2 acceptor
1 3 cation
1 5 cation
1 6 cation
1 7 donor
1 8 donor
4 8 9 10 42 cation
6 11 46 47 48 49 50 rings
6 20 23 25 26 27 28 rings
6 22 29 30 31 32 33 rings
6 3 6 14 15 18 19 rings
6 35 36 37 38 39 40 rings
6 4 5 12 13 16 17 rings
6 9 10 42 43 44 45 rings

> <PUBCHEM_HEAVY_ATOM_COUNT>
50

> <PUBCHEM_ATOM_DEF_STEREO_COUNT>
0

> <PUBCHEM_ATOM_UDEF_STEREO_COUNT>
0

> <PUBCHEM_BOND_DEF_STEREO_COUNT>
0

> <PUBCHEM_BOND_UDEF_STEREO_COUNT>
0

> <PUBCHEM_ISOTOPIC_ATOM_COUNT>
0

> <PUBCHEM_COMPONENT_COUNT>
1

> <PUBCHEM_CACTVS_TAUTO_COUNT>
-1

> <PUBCHEM_CONFORMER_ID>
09BA317000000007

> <PUBCHEM_MMFF94_ENERGY>
196.7851

> <PUBCHEM_FEATURE_SELFOVERLAP>
86.28

> <PUBCHEM_SHAPE_FINGERPRINT>
11181472 205 18410011014605337266
11578821 258 18338515343595476078
15604295 49 18411135878823051246
16728433 281 18200595792178996139
19053607 189 17693076481070140451
2026 5 10159439616944572246
20766409 102 18410007780246284039
21772524 286 18411134736693787039
21792965 106 18410579448482461058
3525247 18 18051693248708432893
353859 123 18190461549976453901
4366758 26 18337956679634034432
6201320 82 18272102573324064195

> <PUBCHEM_SHAPE_MULTIPOLES>
972.41
45.9
14.05
1
65.7
25.7
0.01
59.03
-1.62
-16.88
-1.66
1.39
-0.26
-7.4

> <PUBCHEM_SHAPE_SELFOVERLAP>
2125.929

> <PUBCHEM_SHAPE_VOLUME>
521.5

> <PUBCHEM_COORDINATE_TYPE>
2
5
10

$$$$
