MODEL 1
REMARK VINA RESULT:      -9.7      0.000      0.000
REMARK  5 active torsions:
REMARK  status: ('A' for Active; 'I' for Inactive)
REMARK    1  A    between atoms: N_3  and  C_11 
REMARK       I    between atoms: N_3  and  C_20 
REMARK    2  A    between atoms: N_4  and  C_13 
REMARK       I    between atoms: N_4  and  C_19 
REMARK    3  A    between atoms: C_18  and  C_19 
REMARK    4  A    between atoms: C_21  and  C_29 
REMARK    5  A    between atoms: C_24  and  C_27 
ROOT
HETATM    1  C   UNK N   1       9.064  18.444  20.106  0.00  0.00     0.057 A 
HETATM    2  C   UNK N   1       8.874  19.157  18.893  0.00  0.00    -0.035 A 
HETATM    3  C   UNK N   1      10.797  17.081  18.989  0.00  0.00     0.037 A 
HETATM    4  C   UNK N   1      10.037  17.408  20.143  0.00  0.00     0.060 A 
HETATM    5  C   UNK N   1       9.619  18.818  17.761  0.00  0.00     0.011 A 
HETATM    6  C   UNK N   1      10.561  17.803  17.811  0.00  0.00     0.030 A 
HETATM    7  C   UNK N   1       7.870  20.278  18.783  0.00  0.00     0.050 C 
ENDROOT
BRANCH   1   8
HETATM    8  N   UNK N   1       8.300  18.817  21.269  0.00  0.00    -0.191 N 
HETATM    9  C   UNK N   1       8.616  19.844  22.206  0.00  0.00     0.683 A 
HETATM   10  N   UNK N   1       9.839  20.441  22.229  0.00  0.00    -0.191 N 
HETATM   11  N   UNK N   1       7.691  20.183  23.143  0.00  0.00    -0.202 N 
HETATM   12  C   UNK N   1      10.152  21.406  23.139  0.00  0.00     0.062 A 
ATOM     13  HN  UNK N   1      10.541  20.158  21.544  1.00  0.00     0.184 HD
HETATM   14  C   UNK N   1       9.184  21.773  24.091  0.00  0.00     0.048 A 
HETATM   15  C   UNK N   1       7.950  21.132  24.075  0.00  0.00     0.108 A 
ATOM     16  HN  UNK N   1       6.786  19.713  23.145  1.00  0.00     0.183 HD
HETATM   17  H   UNK N   1       7.447  18.279  21.478  0.00  0.00     0.184 HD
BRANCH  12  18
HETATM   18  C   UNK N   1      11.510  22.028  23.106  0.00  0.00     0.007 A 
HETATM   19  C   UNK N   1      11.655  23.372  22.710  0.00  0.00     0.016 A 
HETATM   20  C   UNK N   1      12.918  23.961  22.668  0.00  0.00     0.018 A 
HETATM   21  C   UNK N   1      14.036  23.214  23.032  0.00  0.00     0.087 A 
HETATM   22  N   UNK N   1      13.893  21.921  23.420  0.00  0.00    -0.374 N 
HETATM   23  C   UNK N   1      12.676  21.315  23.461  0.00  0.00     0.101 A 
ATOM     24  HN  UNK N   1      14.722  21.389  23.688  1.00  0.00     0.164 HD
ENDBRANCH  12  18
ENDBRANCH   1   8
BRANCH   3  25
HETATM   25  N   UNK N   1      11.824  16.069  18.943  0.00  0.00    -0.323 N 
HETATM   26  C   UNK N   1      12.572  15.672  17.861  0.00  0.00     0.256 C 
HETATM   27  O   UNK N   1      12.438  16.220  16.780  0.00  0.00    -0.267 OA
HETATM   28  H   UNK N   1      12.030  15.629  19.845  0.00  0.00     0.169 HD
BRANCH  26  29
HETATM   29  C   UNK N   1      13.612  14.587  17.990  0.00  0.00     0.032 A 
HETATM   30  C   UNK N   1      13.556  13.701  19.086  0.00  0.00     0.017 A 
HETATM   31  C   UNK N   1      14.491  12.668  19.222  0.00  0.00     0.009 A 
HETATM   32  C   UNK N   1      15.504  12.499  18.268  0.00  0.00    -0.044 A 
HETATM   33  C   UNK N   1      15.582  13.384  17.187  0.00  0.00     0.009 A 
HETATM   34  C   UNK N   1      14.653  14.415  17.045  0.00  0.00     0.017 A 
BRANCH  32  35
HETATM   35  C   UNK N   1      16.501  11.382  18.394  0.00  0.00     0.153 C 
HETATM   36 Cl   UNK N   1      17.990  11.784  17.500  0.00  0.00    -0.126 Cl
ENDBRANCH  32  35
ENDBRANCH  26  29
ENDBRANCH   3  25
TORSDOF 5
ENDMDL
MODEL 2
REMARK VINA RESULT:      -9.3      2.045      2.443
REMARK  5 active torsions:
REMARK  status: ('A' for Active; 'I' for Inactive)
REMARK    1  A    between atoms: N_3  and  C_11 
REMARK       I    between atoms: N_3  and  C_20 
REMARK    2  A    between atoms: N_4  and  C_13 
REMARK       I    between atoms: N_4  and  C_19 
REMARK    3  A    between atoms: C_18  and  C_19 
REMARK    4  A    between atoms: C_21  and  C_29 
REMARK    5  A    between atoms: C_24  and  C_27 
ROOT
HETATM    1  C   UNK N   1       9.019  19.221  17.749  0.00  0.00     0.057 A 
HETATM    2  C   UNK N   1       9.155  20.028  16.588  0.00  0.00    -0.035 A 
HETATM    3  C   UNK N   1      10.868  17.800  16.933  0.00  0.00     0.037 A 
HETATM    4  C   UNK N   1       9.889  18.110  17.913  0.00  0.00     0.060 A 
HETATM    5  C   UNK N   1      10.115  19.707  15.626  0.00  0.00     0.011 A 
HETATM    6  C   UNK N   1      10.953  18.617  15.796  0.00  0.00     0.030 A 
HETATM    7  C   UNK N   1       8.277  21.232  16.354  0.00  0.00     0.050 C 
ENDROOT
BRANCH   1   8
HETATM    8  N   UNK N   1       8.036  19.576  18.741  0.00  0.00    -0.191 N 
HETATM    9  C   UNK N   1       8.270  19.828  20.125  0.00  0.00     0.683 A 
HETATM   10  N   UNK N   1       9.455  19.516  20.719  0.00  0.00    -0.191 N 
HETATM   11  N   UNK N   1       7.256  20.327  20.880  0.00  0.00    -0.202 N 
HETATM   12  C   UNK N   1       9.673  19.733  22.046  0.00  0.00     0.062 A 
ATOM     13  HN  UNK N   1      10.200  19.109  20.153  1.00  0.00     0.184 HD
HETATM   14  C   UNK N   1       8.630  20.275  22.821  0.00  0.00     0.048 A 
HETATM   15  C   UNK N   1       7.416  20.558  22.206  0.00  0.00     0.108 A 
ATOM     16  HN  UNK N   1       6.359  20.531  20.441  1.00  0.00     0.183 HD
HETATM   17  H   UNK N   1       7.051  19.631  18.445  0.00  0.00     0.184 HD
BRANCH  12  18
HETATM   18  C   UNK N   1      10.999  19.377  22.636  0.00  0.00     0.007 A 
HETATM   19  C   UNK N   1      11.509  20.126  23.714  0.00  0.00     0.016 A 
HETATM   20  C   UNK N   1      12.748  19.808  24.268  0.00  0.00     0.018 A 
HETATM   21  C   UNK N   1      13.474  18.734  23.754  0.00  0.00     0.087 A 
HETATM   22  N   UNK N   1      12.976  18.010  22.720  0.00  0.00    -0.374 N 
HETATM   23  C   UNK N   1      11.776  18.302  22.152  0.00  0.00     0.101 A 
ATOM     24  HN  UNK N   1      13.519  17.224  22.359  1.00  0.00     0.164 HD
ENDBRANCH  12  18
ENDBRANCH   1   8
BRANCH   3  25
HETATM   25  N   UNK N   1      11.812  16.714  17.030  0.00  0.00    -0.323 N 
HETATM   26  C   UNK N   1      12.169  16.001  18.148  0.00  0.00     0.256 C 
HETATM   27  O   UNK N   1      11.640  16.226  19.222  0.00  0.00    -0.267 OA
HETATM   28  H   UNK N   1      12.230  16.432  16.138  0.00  0.00     0.169 HD
BRANCH  26  29
HETATM   29  C   UNK N   1      13.183  14.887  18.070  0.00  0.00     0.032 A 
HETATM   30  C   UNK N   1      13.093  13.805  18.969  0.00  0.00     0.017 A 
HETATM   31  C   UNK N   1      14.003  12.743  18.907  0.00  0.00     0.009 A 
HETATM   32  C   UNK N   1      15.025  12.740  17.947  0.00  0.00    -0.044 A 
HETATM   33  C   UNK N   1      15.137  13.818  17.063  0.00  0.00     0.009 A 
HETATM   34  C   UNK N   1      14.233  14.879  17.119  0.00  0.00     0.017 A 
BRANCH  32  35
HETATM   35  C   UNK N   1      15.996  11.596  17.860  0.00  0.00     0.153 C 
HETATM   36 Cl   UNK N   1      15.441  10.241  18.879  0.00  0.00    -0.126 Cl
ENDBRANCH  32  35
ENDBRANCH  26  29
ENDBRANCH   3  25
TORSDOF 5
ENDMDL
MODEL 3
REMARK VINA RESULT:      -8.5      5.301     11.033
REMARK  5 active torsions:
REMARK  status: ('A' for Active; 'I' for Inactive)
REMARK    1  A    between atoms: N_3  and  C_11 
REMARK       I    between atoms: N_3  and  C_20 
REMARK    2  A    between atoms: N_4  and  C_13 
REMARK       I    between atoms: N_4  and  C_19 
REMARK    3  A    between atoms: C_18  and  C_19 
REMARK    4  A    between atoms: C_21  and  C_29 
REMARK    5  A    between atoms: C_24  and  C_27 
ROOT
HETATM    1  C   UNK N   1      15.066  13.567  18.908  0.00  0.00     0.057 A 
HETATM    2  C   UNK N   1      14.437  12.313  18.689  0.00  0.00    -0.035 A 
HETATM    3  C   UNK N   1      13.126  14.680  17.857  0.00  0.00     0.037 A 
HETATM    4  C   UNK N   1      14.394  14.749  18.491  0.00  0.00     0.060 A 
HETATM    5  C   UNK N   1      13.195  12.258  18.054  0.00  0.00     0.011 A 
HETATM    6  C   UNK N   1      12.554  13.417  17.648  0.00  0.00     0.030 A 
HETATM    7  C   UNK N   1      15.083  11.019  19.118  0.00  0.00     0.050 C 
ENDROOT
BRANCH   1   8
HETATM    8  N   UNK N   1      16.340  13.608  19.580  0.00  0.00    -0.191 N 
HETATM    9  C   UNK N   1      17.620  13.361  19.001  0.00  0.00     0.683 A 
HETATM   10  N   UNK N   1      17.751  12.811  17.763  0.00  0.00    -0.191 N 
HETATM   11  N   UNK N   1      18.732  13.620  19.738  0.00  0.00    -0.202 N 
HETATM   12  C   UNK N   1      18.973  12.552  17.217  0.00  0.00     0.062 A 
ATOM     13  HN  UNK N   1      16.912  12.587  17.228  1.00  0.00     0.184 HD
HETATM   14  C   UNK N   1      20.124  12.846  17.972  0.00  0.00     0.048 A 
HETATM   15  C   UNK N   1      19.972  13.378  19.247  0.00  0.00     0.108 A 
ATOM     16  HN  UNK N   1      18.631  14.003  20.678  1.00  0.00     0.183 HD
HETATM   17  H   UNK N   1      16.346  13.806  20.590  0.00  0.00     0.184 HD
BRANCH  12  18
HETATM   18  C   UNK N   1      19.050  11.955  15.850  0.00  0.00     0.007 A 
HETATM   19  C   UNK N   1      20.300  11.819  15.215  0.00  0.00     0.016 A 
HETATM   20  C   UNK N   1      20.384  11.270  13.936  0.00  0.00     0.018 A 
HETATM   21  C   UNK N   1      19.222  10.845  13.294  0.00  0.00     0.087 A 
HETATM   22  N   UNK N   1      18.020  10.970  13.912  0.00  0.00    -0.374 N 
HETATM   23  C   UNK N   1      17.904  11.512  15.154  0.00  0.00     0.101 A 
ATOM     24  HN  UNK N   1      17.179  10.651  13.429  1.00  0.00     0.164 HD
ENDBRANCH  12  18
ENDBRANCH   1   8
BRANCH   3  25
HETATM   25  N   UNK N   1      12.360  15.824  17.429  0.00  0.00    -0.323 N 
HETATM   26  C   UNK N   1      11.439  16.544  18.152  0.00  0.00     0.256 C 
HETATM   27  O   UNK N   1      11.213  16.269  19.317  0.00  0.00    -0.267 OA
HETATM   28  H   UNK N   1      12.567  16.146  16.479  0.00  0.00     0.169 HD
BRANCH  26  29
HETATM   29  C   UNK N   1      10.721  17.722  17.543  0.00  0.00     0.032 A 
HETATM   30  C   UNK N   1       9.839  18.482  18.340  0.00  0.00     0.017 A 
HETATM   31  C   UNK N   1       9.176  19.597  17.813  0.00  0.00     0.009 A 
HETATM   32  C   UNK N   1       9.377  19.976  16.478  0.00  0.00    -0.044 A 
HETATM   33  C   UNK N   1      10.233  19.218  15.672  0.00  0.00     0.009 A 
HETATM   34  C   UNK N   1      10.898  18.106  16.191  0.00  0.00     0.017 A 
BRANCH  32  35
HETATM   35  C   UNK N   1       8.685  21.182  15.908  0.00  0.00     0.153 C 
HETATM   36 Cl   UNK N   1       7.230  21.565  16.866  0.00  0.00    -0.126 Cl
ENDBRANCH  32  35
ENDBRANCH  26  29
ENDBRANCH   3  25
TORSDOF 5
ENDMDL
MODEL 4
REMARK VINA RESULT:      -7.7      2.805      4.442
REMARK  5 active torsions:
REMARK  status: ('A' for Active; 'I' for Inactive)
REMARK    1  A    between atoms: N_3  and  C_11 
REMARK       I    between atoms: N_3  and  C_20 
REMARK    2  A    between atoms: N_4  and  C_13 
REMARK       I    between atoms: N_4  and  C_19 
REMARK    3  A    between atoms: C_18  and  C_19 
REMARK    4  A    between atoms: C_21  and  C_29 
REMARK    5  A    between atoms: C_24  and  C_27 
ROOT
HETATM    1  C   UNK N   1      11.149  16.670  19.184  0.00  0.00     0.057 A 
HETATM    2  C   UNK N   1      10.182  16.722  18.145  0.00  0.00    -0.035 A 
HETATM    3  C   UNK N   1      12.678  15.481  17.649  0.00  0.00     0.037 A 
HETATM    4  C   UNK N   1      12.401  16.049  18.920  0.00  0.00     0.060 A 
HETATM    5  C   UNK N   1      10.463  16.149  16.902  0.00  0.00     0.011 A 
HETATM    6  C   UNK N   1      11.686  15.543  16.661  0.00  0.00     0.030 A 
HETATM    7  C   UNK N   1       8.838  17.377  18.347  0.00  0.00     0.050 C 
ENDROOT
BRANCH   1   8
HETATM    8  N   UNK N   1      10.851  17.280  20.454  0.00  0.00    -0.191 N 
HETATM    9  C   UNK N   1       9.947  18.358  20.694  0.00  0.00     0.683 A 
HETATM   10  N   UNK N   1       9.433  19.101  19.675  0.00  0.00    -0.191 N 
HETATM   11  N   UNK N   1       9.650  18.690  21.977  0.00  0.00    -0.202 N 
HETATM   12  C   UNK N   1       8.589  20.146  19.902  0.00  0.00     0.062 A 
ATOM     13  HN  UNK N   1       9.687  18.868  18.714  1.00  0.00     0.184 HD
HETATM   14  C   UNK N   1       8.261  20.471  21.231  0.00  0.00     0.048 A 
HETATM   15  C   UNK N   1       8.819  19.722  22.262  0.00  0.00     0.108 A 
ATOM     16  HN  UNK N   1      10.060  18.152  22.741  1.00  0.00     0.183 HD
HETATM   17  H   UNK N   1      11.353  16.936  21.284  0.00  0.00     0.184 HD
BRANCH  12  18
HETATM   18  C   UNK N   1       8.052  20.917  18.740  0.00  0.00     0.007 A 
HETATM   19  C   UNK N   1       8.833  21.065  17.578  0.00  0.00     0.016 A 
HETATM   20  C   UNK N   1       8.346  21.789  16.490  0.00  0.00     0.018 A 
HETATM   21  C   UNK N   1       7.075  22.356  16.557  0.00  0.00     0.087 A 
HETATM   22  N   UNK N   1       6.322  22.205  17.676  0.00  0.00    -0.374 N 
HETATM   23  C   UNK N   1       6.773  21.515  18.757  0.00  0.00     0.101 A 
ATOM     24  HN  UNK N   1       5.391  22.623  17.707  1.00  0.00     0.164 HD
ENDBRANCH  12  18
ENDBRANCH   1   8
BRANCH   3  25
HETATM   25  N   UNK N   1      13.928  14.860  17.283  0.00  0.00    -0.323 N 
HETATM   26  C   UNK N   1      14.384  13.611  17.625  0.00  0.00     0.256 C 
HETATM   27  O   UNK N   1      13.690  12.857  18.285  0.00  0.00    -0.267 OA
HETATM   28  H   UNK N   1      14.518  15.423  16.663  0.00  0.00     0.169 HD
BRANCH  26  29
HETATM   29  C   UNK N   1      15.729  13.117  17.153  0.00  0.00     0.032 A 
HETATM   30  C   UNK N   1      16.732  12.829  18.102  0.00  0.00     0.017 A 
HETATM   31  C   UNK N   1      17.982  12.345  17.698  0.00  0.00     0.009 A 
HETATM   32  C   UNK N   1      18.259  12.141  16.339  0.00  0.00    -0.044 A 
HETATM   33  C   UNK N   1      17.279  12.442  15.388  0.00  0.00     0.009 A 
HETATM   34  C   UNK N   1      16.030  12.924  15.783  0.00  0.00     0.017 A 
BRANCH  32  35
HETATM   35  C   UNK N   1      19.592  11.604  15.897  0.00  0.00     0.153 C 
HETATM   36 Cl   UNK N   1      20.908  12.609  16.558  0.00  0.00    -0.126 Cl
ENDBRANCH  32  35
ENDBRANCH  26  29
ENDBRANCH   3  25
TORSDOF 5
ENDMDL
MODEL 5
REMARK VINA RESULT:      -7.4      2.761      4.646
REMARK  5 active torsions:
REMARK  status: ('A' for Active; 'I' for Inactive)
REMARK    1  A    between atoms: N_3  and  C_11 
REMARK       I    between atoms: N_3  and  C_20 
REMARK    2  A    between atoms: N_4  and  C_13 
REMARK       I    between atoms: N_4  and  C_19 
REMARK    3  A    between atoms: C_18  and  C_19 
REMARK    4  A    between atoms: C_21  and  C_29 
REMARK    5  A    between atoms: C_24  and  C_27 
ROOT
HETATM    1  C   UNK N   1      10.787  17.184  17.180  0.00  0.00     0.057 A 
HETATM    2  C   UNK N   1      10.249  16.931  18.470  0.00  0.00    -0.035 A 
HETATM    3  C   UNK N   1      12.718  15.750  17.744  0.00  0.00     0.037 A 
HETATM    4  C   UNK N   1      12.024  16.580  16.826  0.00  0.00     0.060 A 
HETATM    5  C   UNK N   1      10.947  16.122  19.369  0.00  0.00     0.011 A 
HETATM    6  C   UNK N   1      12.155  15.543  19.011  0.00  0.00     0.030 A 
HETATM    7  C   UNK N   1       8.934  17.525  18.910  0.00  0.00     0.050 C 
ENDROOT
BRANCH   1   8
HETATM    8  N   UNK N   1      10.045  18.007  16.258  0.00  0.00    -0.191 N 
HETATM    9  C   UNK N   1       9.393  19.242  16.549  0.00  0.00     0.683 A 
HETATM   10  N   UNK N   1       9.199  19.665  17.828  0.00  0.00    -0.191 N 
HETATM   11  N   UNK N   1       8.894  19.977  15.521  0.00  0.00    -0.202 N 
HETATM   12  C   UNK N   1       8.555  20.832  18.110  0.00  0.00     0.062 A 
ATOM     13  HN  UNK N   1       9.546  19.092  18.598  1.00  0.00     0.184 HD
HETATM   14  C   UNK N   1       8.062  21.604  17.042  0.00  0.00     0.048 A 
HETATM   15  C   UNK N   1       8.241  21.143  15.742  0.00  0.00     0.108 A 
ATOM     16  HN  UNK N   1       9.013  19.643  14.564  1.00  0.00     0.183 HD
HETATM   17  H   UNK N   1       9.940  17.673  15.290  0.00  0.00     0.184 HD
BRANCH  12  18
HETATM   18  C   UNK N   1       8.380  21.245  19.536  0.00  0.00     0.007 A 
HETATM   19  C   UNK N   1       7.313  20.722  20.290  0.00  0.00     0.016 A 
HETATM   20  C   UNK N   1       7.136  21.105  21.619  0.00  0.00     0.018 A 
HETATM   21  C   UNK N   1       8.031  22.002  22.199  0.00  0.00     0.087 A 
HETATM   22  N   UNK N   1       9.063  22.499  21.471  0.00  0.00    -0.374 N 
HETATM   23  C   UNK N   1       9.256  22.153  20.171  0.00  0.00     0.101 A 
ATOM     24  HN  UNK N   1       9.712  23.151  21.913  1.00  0.00     0.164 HD
ENDBRANCH  12  18
ENDBRANCH   1   8
BRANCH   3  25
HETATM   25  N   UNK N   1      13.960  15.073  17.462  0.00  0.00    -0.323 N 
HETATM   26  C   UNK N   1      14.269  13.751  17.669  0.00  0.00     0.256 C 
HETATM   27  O   UNK N   1      13.432  12.980  18.106  0.00  0.00    -0.267 OA
HETATM   28  H   UNK N   1      14.675  15.660  17.020  0.00  0.00     0.169 HD
BRANCH  26  29
HETATM   29  C   UNK N   1      15.629  13.204  17.315  0.00  0.00     0.032 A 
HETATM   30  C   UNK N   1      15.954  12.979  15.961  0.00  0.00     0.017 A 
HETATM   31  C   UNK N   1      17.216  12.497  15.597  0.00  0.00     0.009 A 
HETATM   32  C   UNK N   1      18.181  12.225  16.576  0.00  0.00    -0.044 A 
HETATM   33  C   UNK N   1      17.865  12.425  17.924  0.00  0.00     0.009 A 
HETATM   34  C   UNK N   1      16.608  12.907  18.294  0.00  0.00     0.017 A 
BRANCH  32  35
HETATM   35  C   UNK N   1      19.546  11.725  16.194  0.00  0.00     0.153 C 
HETATM   36 Cl   UNK N   1      20.717  13.069  16.200  0.00  0.00    -0.126 Cl
ENDBRANCH  32  35
ENDBRANCH  26  29
ENDBRANCH   3  25
TORSDOF 5
ENDMDL
