MODEL 1
REMARK VINA RESULT:     -10.3      0.000      0.000
REMARK  6 active torsions:
REMARK  status: ('A' for Active; 'I' for Inactive)
REMARK    1  A    between atoms: N_2  and  C_16 
REMARK       I    between atoms: N_4  and  C_24 
REMARK    2  A    between atoms: N_4  and  C_25 
REMARK    3  A    between atoms: N_5  and  C_28 
REMARK       I    between atoms: N_5  and  C_32 
REMARK    4  A    between atoms: C_16  and  C_18 
REMARK    5  A    between atoms: C_23  and  C_24 
REMARK    6  A    between atoms: C_33  and  C_34 
ROOT
HETATM    1  C   UNK N   1      12.175  16.130  17.908  0.00  0.00     0.035 A 
HETATM    2  C   UNK N   1      10.511  17.347  16.588  0.00  0.00    -0.033 A 
HETATM    3  C   UNK N   1      11.687  16.595  16.679  0.00  0.00     0.038 A 
HETATM    4  C   UNK N   1       9.775  17.653  17.760  0.00  0.00     0.055 A 
HETATM    5  C   UNK N   1      11.452  16.442  19.078  0.00  0.00     0.032 A 
HETATM    6  C   UNK N   1      10.272  17.193  19.002  0.00  0.00     0.033 A 
HETATM    7  C   UNK N   1      10.051  17.798  15.225  0.00  0.00     0.050 C 
ENDROOT
BRANCH   1   8
HETATM    8  N   UNK N   1      13.404  15.384  17.885  0.00  0.00    -0.323 N 
HETATM    9  C   UNK N   1      13.576  14.052  17.605  0.00  0.00     0.256 C 
HETATM   10  O   UNK N   1      12.629  13.355  17.279  0.00  0.00    -0.267 OA
HETATM   11  H   UNK N   1      14.248  15.945  18.044  0.00  0.00     0.169 HD
BRANCH   9  12
HETATM   12  C   UNK N   1      14.952  13.448  17.615  0.00  0.00     0.032 A 
HETATM   13  C   UNK N   1      15.697  13.323  18.809  0.00  0.00     0.017 A 
HETATM   14  C   UNK N   1      16.988  12.801  18.791  0.00  0.00     0.010 A 
HETATM   15  C   UNK N   1      17.578  12.408  17.587  0.00  0.00    -0.030 A 
HETATM   16  C   UNK N   1      16.843  12.503  16.396  0.00  0.00     0.010 A 
HETATM   17  C   UNK N   1      15.535  13.006  16.410  0.00  0.00     0.017 A 
BRANCH  15  18
HETATM   18  C   UNK N   1      19.002  11.912  17.588  0.00  0.00     0.311 C 
BRANCH  18  19
HETATM   19  N   UNK N   1      19.620  12.067  16.252  0.00  0.00     0.096 N 
HETATM   20  C   UNK N   1      19.399  10.902  15.370  0.00  0.00     0.303 C 
HETATM   21  C   UNK N   1      19.985  11.193  13.984  0.00  0.00     0.302 C 
HETATM   22  N   UNK N   1      21.428  11.472  14.098  0.00  0.00     0.087 N 
HETATM   23  C   UNK N   1      21.656  12.625  14.990  0.00  0.00     0.302 C 
HETATM   24  C   UNK N   1      22.006  11.730  12.771  0.00  0.00     0.310 C 
HETATM   25  C   UNK N   1      21.064  12.340  16.374  0.00  0.00     0.303 C 
ENDBRANCH  18  19
ENDBRANCH  15  18
ENDBRANCH   9  12
ENDBRANCH   1   8
BRANCH   4  26
HETATM   26  N   UNK N   1       8.579  18.448  17.655  0.00  0.00    -0.191 N 
HETATM   27  C   UNK N   1       8.191  19.516  18.516  0.00  0.00     0.683 A 
HETATM   28  N   UNK N   1       8.817  19.738  19.702  0.00  0.00    -0.191 N 
HETATM   29  N   UNK N   1       7.129  20.288  18.166  0.00  0.00    -0.202 N 
HETATM   30  C   UNK N   1       8.441  20.746  20.537  0.00  0.00     0.062 A 
ATOM     31  HN  UNK N   1       9.593  19.133  19.973  1.00  0.00     0.184 HD
HETATM   32  C   UNK N   1       7.359  21.562  20.162  0.00  0.00     0.048 A 
HETATM   33  C   UNK N   1       6.707  21.302  18.960  0.00  0.00     0.108 A 
ATOM     34  HN  UNK N   1       6.640  20.101  17.290  1.00  0.00     0.183 HD
HETATM   35  H   UNK N   1       7.915  18.227  16.900  0.00  0.00     0.184 HD
BRANCH  30  36
HETATM   36  C   UNK N   1       9.178  20.938  21.823  0.00  0.00     0.007 A 
HETATM   37  C   UNK N   1       9.789  19.835  22.449  0.00  0.00     0.016 A 
HETATM   38  C   UNK N   1      10.473  20.002  23.654  0.00  0.00     0.018 A 
HETATM   39  C   UNK N   1      10.557  21.270  24.225  0.00  0.00     0.087 A 
HETATM   40  N   UNK N   1       9.974  22.331  23.613  0.00  0.00    -0.374 N 
HETATM   41  C   UNK N   1       9.291  22.200  22.444  0.00  0.00     0.101 A 
ATOM     42  HN  UNK N   1      10.049  23.254  24.043  1.00  0.00     0.164 HD
ENDBRANCH  30  36
ENDBRANCH   4  26
TORSDOF 6
ENDMDL
MODEL 2
REMARK VINA RESULT:      -9.7      1.215      1.576
REMARK  6 active torsions:
REMARK  status: ('A' for Active; 'I' for Inactive)
REMARK    1  A    between atoms: N_2  and  C_16 
REMARK       I    between atoms: N_4  and  C_24 
REMARK    2  A    between atoms: N_4  and  C_25 
REMARK    3  A    between atoms: N_5  and  C_28 
REMARK       I    between atoms: N_5  and  C_32 
REMARK    4  A    between atoms: C_16  and  C_18 
REMARK    5  A    between atoms: C_23  and  C_24 
REMARK    6  A    between atoms: C_33  and  C_34 
ROOT
HETATM    1  C   UNK N   1      11.549  16.475  16.976  0.00  0.00     0.035 A 
HETATM    2  C   UNK N   1      10.504  18.496  16.075  0.00  0.00    -0.033 A 
HETATM    3  C   UNK N   1      11.561  17.581  16.116  0.00  0.00     0.038 A 
HETATM    4  C   UNK N   1       9.378  18.313  16.915  0.00  0.00     0.055 A 
HETATM    5  C   UNK N   1      10.435  16.296  17.823  0.00  0.00     0.032 A 
HETATM    6  C   UNK N   1       9.368  17.202  17.791  0.00  0.00     0.033 A 
HETATM    7  C   UNK N   1      10.593  19.652  15.111  0.00  0.00     0.050 C 
ENDROOT
BRANCH   1   8
HETATM    8  N   UNK N   1      12.698  15.611  16.950  0.00  0.00    -0.323 N 
HETATM    9  C   UNK N   1      13.311  14.992  18.010  0.00  0.00     0.256 C 
HETATM   10  O   UNK N   1      12.862  15.097  19.140  0.00  0.00    -0.267 OA
HETATM   11  H   UNK N   1      13.052  15.398  16.012  0.00  0.00     0.169 HD
BRANCH   9  12
HETATM   12  C   UNK N   1      14.502  14.105  17.783  0.00  0.00     0.032 A 
HETATM   13  C   UNK N   1      14.888  13.699  16.485  0.00  0.00     0.017 A 
HETATM   14  C   UNK N   1      15.968  12.841  16.298  0.00  0.00     0.010 A 
HETATM   15  C   UNK N   1      16.681  12.350  17.395  0.00  0.00    -0.030 A 
HETATM   16  C   UNK N   1      16.328  12.762  18.688  0.00  0.00     0.010 A 
HETATM   17  C   UNK N   1      15.256  13.644  18.881  0.00  0.00     0.017 A 
BRANCH  15  18
HETATM   18  C   UNK N   1      17.803  11.367  17.168  0.00  0.00     0.311 C 
BRANCH  18  19
HETATM   19  N   UNK N   1      18.825  11.929  16.256  0.00  0.00     0.096 N 
HETATM   20  C   UNK N   1      19.287  10.965  15.236  0.00  0.00     0.303 C 
HETATM   21  C   UNK N   1      20.264  11.661  14.282  0.00  0.00     0.302 C 
HETATM   22  N   UNK N   1      21.416  12.185  15.039  0.00  0.00     0.087 N 
HETATM   23  C   UNK N   1      20.959  13.136  16.070  0.00  0.00     0.302 C 
HETATM   24  C   UNK N   1      22.372  12.835  14.131  0.00  0.00     0.310 C 
HETATM   25  C   UNK N   1      19.976  12.444  17.020  0.00  0.00     0.303 C 
ENDBRANCH  18  19
ENDBRANCH  15  18
ENDBRANCH   9  12
ENDBRANCH   1   8
BRANCH   4  26
HETATM   26  N   UNK N   1       8.307  19.275  16.880  0.00  0.00    -0.191 N 
HETATM   27  C   UNK N   1       7.837  20.063  17.971  0.00  0.00     0.683 A 
HETATM   28  N   UNK N   1       8.208  19.799  19.252  0.00  0.00    -0.191 N 
HETATM   29  N   UNK N   1       6.947  21.061  17.725  0.00  0.00    -0.202 N 
HETATM   30  C   UNK N   1       7.749  20.536  20.301  0.00  0.00     0.062 A 
ATOM     31  HN  UNK N   1       8.850  19.027  19.432  1.00  0.00     0.184 HD
HETATM   32  C   UNK N   1       6.849  21.586  20.043  0.00  0.00     0.048 A 
HETATM   33  C   UNK N   1       6.454  21.824  18.730  0.00  0.00     0.108 A 
ATOM     34  HN  UNK N   1       6.646  21.238  16.766  1.00  0.00     0.183 HD
HETATM   35  H   UNK N   1       7.806  19.411  15.991  0.00  0.00     0.184 HD
BRANCH  30  36
HETATM   36  C   UNK N   1       8.204  20.196  21.683  0.00  0.00     0.007 A 
HETATM   37  C   UNK N   1       7.505  19.228  22.430  0.00  0.00     0.016 A 
HETATM   38  C   UNK N   1       7.916  18.908  23.724  0.00  0.00     0.018 A 
HETATM   39  C   UNK N   1       9.031  19.544  24.267  0.00  0.00     0.087 A 
HETATM   40  N   UNK N   1       9.706  20.470  23.540  0.00  0.00    -0.374 N 
HETATM   41  C   UNK N   1       9.324  20.812  22.280  0.00  0.00     0.101 A 
ATOM     42  HN  UNK N   1      10.523  20.923  23.951  1.00  0.00     0.164 HD
ENDBRANCH  30  36
ENDBRANCH   4  26
TORSDOF 6
ENDMDL
