MODEL 1
REMARK VINA RESULT:      -6.9      0.000      0.000
REMARK  2 active torsions:
REMARK  status: ('A' for Active; 'I' for Inactive)
REMARK    1  A    between atoms: N_1  and  C_7 
REMARK    2  A    between atoms: N_3  and  C_10 
REMARK       I    between atoms: N_4  and  C_13 
REMARK       I    between atoms: N_5  and  C_13 
ROOT
HETATM    1  C   UNK N   1      19.570  12.780  17.366  0.00  0.00    -0.035 A 
HETATM    2  C   UNK N   1      18.544  11.990  16.810  0.00  0.00     0.057 A 
HETATM    3  C   UNK N   1      18.691  11.454  15.524  0.00  0.00     0.059 A 
HETATM    4  C   UNK N   1      20.742  13.007  16.627  0.00  0.00     0.011 A 
HETATM    5  C   UNK N   1      19.865  11.681  14.793  0.00  0.00     0.027 A 
HETATM    6  C   UNK N   1      20.890  12.454  15.352  0.00  0.00     0.029 A 
HETATM    7  C   UNK N   1      19.423  13.371  18.740  0.00  0.00     0.050 C 
ENDROOT
BRANCH   2   8
HETATM    8  N   UNK N   1      17.358  11.724  17.545  0.00  0.00    -0.192 N 
HETATM    9  C   UNK N   1      16.190  12.126  17.166  0.00  0.00     0.669 C 
HETATM   10  N   UNK N   1      15.057  11.820  17.960  0.00  0.00    -0.235 N 
HETATM   11  N   UNK N   1      16.012  12.872  15.963  0.00  0.00    -0.235 N 
HETATM   12  H   UNK N   1      15.161  11.284  18.834  0.00  0.00     0.174 HD
HETATM   13  H   UNK N   1      14.121  12.133  17.668  0.00  0.00     0.174 HD
HETATM   14  H   UNK N   1      15.070  13.175  15.684  0.00  0.00     0.174 HD
HETATM   15  H   UNK N   1      16.806  13.115  15.352  0.00  0.00     0.174 HD
ATOM     16  HN  UNK N   1      17.432  11.190  18.411  1.00  0.00     0.184 HD
ENDBRANCH   2   8
BRANCH   5  17
HETATM   17  N   UNK N   1      20.015  11.125  13.499  0.00  0.00    -0.399 N 
HETATM   18  H   UNK N   1      19.809  10.129  13.332  0.00  0.00     0.156 HD
HETATM   19  H   UNK N   1      20.328  11.709  12.711  0.00  0.00     0.156 HD
ENDBRANCH   5  17
TORSDOF 2
ENDMDL
MODEL 2
REMARK VINA RESULT:      -6.6      1.479      2.207
REMARK  2 active torsions:
REMARK  status: ('A' for Active; 'I' for Inactive)
REMARK    1  A    between atoms: N_1  and  C_7 
REMARK    2  A    between atoms: N_3  and  C_10 
REMARK       I    between atoms: N_4  and  C_13 
REMARK       I    between atoms: N_5  and  C_13 
ROOT
HETATM    1  C   UNK N   1      18.146  13.118  18.833  0.00  0.00    -0.035 A 
HETATM    2  C   UNK N   1      17.241  12.520  17.933  0.00  0.00     0.057 A 
HETATM    3  C   UNK N   1      17.698  12.028  16.703  0.00  0.00     0.059 A 
HETATM    4  C   UNK N   1      19.505  13.200  18.491  0.00  0.00     0.011 A 
HETATM    5  C   UNK N   1      19.057  12.110  16.370  0.00  0.00     0.027 A 
HETATM    6  C   UNK N   1      19.958  12.692  17.271  0.00  0.00     0.029 A 
HETATM    7  C   UNK N   1      17.668  13.659  20.151  0.00  0.00     0.050 C 
ENDROOT
BRANCH   2   8
HETATM    8  N   UNK N   1      15.864  12.401  18.262  0.00  0.00    -0.192 N 
HETATM    9  C   UNK N   1      15.359  11.340  18.798  0.00  0.00     0.669 C 
HETATM   10  N   UNK N   1      13.973  11.301  19.093  0.00  0.00    -0.235 N 
HETATM   11  N   UNK N   1      16.164  10.202  19.105  0.00  0.00    -0.235 N 
HETATM   12  H   UNK N   1      13.372  12.111  18.880  0.00  0.00     0.174 HD
HETATM   13  H   UNK N   1      13.558  10.463  19.523  0.00  0.00     0.174 HD
HETATM   14  H   UNK N   1      15.734   9.373  19.535  0.00  0.00     0.174 HD
HETATM   15  H   UNK N   1      17.175  10.186  18.911  0.00  0.00     0.174 HD
ATOM     16  HN  UNK N   1      15.247  13.190  18.067  1.00  0.00     0.184 HD
ENDBRANCH   2   8
BRANCH   5  17
HETATM   17  N   UNK N   1      19.518  11.598  15.132  0.00  0.00    -0.399 N 
HETATM   18  H   UNK N   1      19.737  12.235  14.353  0.00  0.00     0.156 HD
HETATM   19  H   UNK N   1      19.642  10.584  14.998  0.00  0.00     0.156 HD
ENDBRANCH   5  17
TORSDOF 2
ENDMDL
MODEL 3
REMARK VINA RESULT:      -6.4      2.479      5.528
REMARK  2 active torsions:
REMARK  status: ('A' for Active; 'I' for Inactive)
REMARK    1  A    between atoms: N_1  and  C_7 
REMARK    2  A    between atoms: N_3  and  C_10 
REMARK       I    between atoms: N_4  and  C_13 
REMARK       I    between atoms: N_5  and  C_13 
ROOT
HETATM    1  C   UNK N   1      15.583  11.449  18.993  0.00  0.00    -0.035 A 
HETATM    2  C   UNK N   1      16.069  12.618  18.374  0.00  0.00     0.057 A 
HETATM    3  C   UNK N   1      15.274  13.771  18.332  0.00  0.00     0.059 A 
HETATM    4  C   UNK N   1      14.307  11.459  19.579  0.00  0.00     0.011 A 
HETATM    5  C   UNK N   1      14.003  13.775  18.922  0.00  0.00     0.027 A 
HETATM    6  C   UNK N   1      13.526  12.617  19.549  0.00  0.00     0.029 A 
HETATM    7  C   UNK N   1      16.420  10.201  19.037  0.00  0.00     0.050 C 
ENDROOT
BRANCH   2   8
HETATM    8  N   UNK N   1      17.366  12.644  17.796  0.00  0.00    -0.192 N 
HETATM    9  C   UNK N   1      17.585  12.389  16.549  0.00  0.00     0.669 C 
HETATM   10  N   UNK N   1      18.911  12.434  16.051  0.00  0.00    -0.235 N 
HETATM   11  N   UNK N   1      16.521  12.064  15.655  0.00  0.00    -0.235 N 
HETATM   12  H   UNK N   1      19.697  12.664  16.678  0.00  0.00     0.174 HD
HETATM   13  H   UNK N   1      19.099  12.234  15.059  0.00  0.00     0.174 HD
HETATM   14  H   UNK N   1      16.725  11.870  14.666  0.00  0.00     0.174 HD
HETATM   15  H   UNK N   1      15.541  12.023  15.971  0.00  0.00     0.174 HD
ATOM     16  HN  UNK N   1      18.161  12.876  18.392  1.00  0.00     0.184 HD
ENDBRANCH   2   8
BRANCH   5  17
HETATM   17  N   UNK N   1      13.209  14.948  18.890  0.00  0.00    -0.399 N 
HETATM   18  H   UNK N   1      13.080  15.515  19.740  0.00  0.00     0.156 HD
HETATM   19  H   UNK N   1      12.754  15.249  18.015  0.00  0.00     0.156 HD
ENDBRANCH   5  17
TORSDOF 2
ENDMDL
MODEL 4
REMARK VINA RESULT:      -6.4      2.223      3.095
REMARK  2 active torsions:
REMARK  status: ('A' for Active; 'I' for Inactive)
REMARK    1  A    between atoms: N_1  and  C_7 
REMARK    2  A    between atoms: N_3  and  C_10 
REMARK       I    between atoms: N_4  and  C_13 
REMARK       I    between atoms: N_5  and  C_13 
ROOT
HETATM    1  C   UNK N   1      17.258  13.095  18.914  0.00  0.00    -0.035 A 
HETATM    2  C   UNK N   1      16.050  12.947  18.202  0.00  0.00     0.057 A 
HETATM    3  C   UNK N   1      16.062  12.404  16.909  0.00  0.00     0.059 A 
HETATM    4  C   UNK N   1      18.462  12.679  18.324  0.00  0.00     0.011 A 
HETATM    5  C   UNK N   1      17.267  11.988  16.328  0.00  0.00     0.027 A 
HETATM    6  C   UNK N   1      18.464  12.122  17.043  0.00  0.00     0.029 A 
HETATM    7  C   UNK N   1      17.263  13.684  20.297  0.00  0.00     0.050 C 
ENDROOT
BRANCH   2   8
HETATM    8  N   UNK N   1      14.815  13.336  18.783  0.00  0.00    -0.192 N 
HETATM    9  C   UNK N   1      14.166  14.392  18.416  0.00  0.00     0.669 C 
HETATM   10  N   UNK N   1      12.940  14.711  19.050  0.00  0.00    -0.235 N 
HETATM   11  N   UNK N   1      14.654  15.245  17.382  0.00  0.00    -0.235 N 
HETATM   12  H   UNK N   1      12.569  14.110  19.801  0.00  0.00     0.174 HD
HETATM   13  H   UNK N   1      12.413  15.548  18.766  0.00  0.00     0.174 HD
HETATM   14  H   UNK N   1      14.114  16.077  17.107  0.00  0.00     0.174 HD
HETATM   15  H   UNK N   1      15.538  15.051  16.890  0.00  0.00     0.174 HD
ATOM     16  HN  UNK N   1      14.421  12.756  19.524  1.00  0.00     0.184 HD
ENDBRANCH   2   8
BRANCH   5  17
HETATM   17  N   UNK N   1      17.271  11.426  15.028  0.00  0.00    -0.399 N 
HETATM   18  H   UNK N   1      18.012  11.673  14.355  0.00  0.00     0.156 HD
HETATM   19  H   UNK N   1      16.537  10.762  14.741  0.00  0.00     0.156 HD
ENDBRANCH   5  17
TORSDOF 2
ENDMDL
MODEL 5
REMARK VINA RESULT:      -6.2      2.392      5.492
REMARK  2 active torsions:
REMARK  status: ('A' for Active; 'I' for Inactive)
REMARK    1  A    between atoms: N_1  and  C_7 
REMARK    2  A    between atoms: N_3  and  C_10 
REMARK       I    between atoms: N_4  and  C_13 
REMARK       I    between atoms: N_5  and  C_13 
ROOT
HETATM    1  C   UNK N   1      15.294  11.520  18.692  0.00  0.00    -0.035 A 
HETATM    2  C   UNK N   1      15.708  12.351  17.632  0.00  0.00     0.057 A 
HETATM    3  C   UNK N   1      15.059  13.573  17.405  0.00  0.00     0.059 A 
HETATM    4  C   UNK N   1      14.241  11.935  19.523  0.00  0.00     0.011 A 
HETATM    5  C   UNK N   1      14.012  13.983  18.241  0.00  0.00     0.027 A 
HETATM    6  C   UNK N   1      13.610  13.162  19.303  0.00  0.00     0.029 A 
HETATM    7  C   UNK N   1      15.973  10.202  18.941  0.00  0.00     0.050 C 
ENDROOT
BRANCH   2   8
HETATM    8  N   UNK N   1      16.786  11.968  16.790  0.00  0.00    -0.192 N 
HETATM    9  C   UNK N   1      18.024  12.182  17.092  0.00  0.00     0.669 C 
HETATM   10  N   UNK N   1      19.040  11.771  16.194  0.00  0.00    -0.235 N 
HETATM   11  N   UNK N   1      18.395  12.822  18.312  0.00  0.00    -0.235 N 
HETATM   12  H   UNK N   1      18.796  11.307  15.306  0.00  0.00     0.174 HD
HETATM   13  H   UNK N   1      20.030  11.933  16.424  0.00  0.00     0.174 HD
HETATM   14  H   UNK N   1      19.389  12.976  18.527  0.00  0.00     0.174 HD
HETATM   15  H   UNK N   1      17.691  13.136  18.996  0.00  0.00     0.174 HD
ATOM     16  HN  UNK N   1      16.573  11.502  15.908  1.00  0.00     0.184 HD
ENDBRANCH   2   8
BRANCH   5  17
HETATM   17  N   UNK N   1      13.369  15.225  18.017  0.00  0.00    -0.399 N 
HETATM   18  H   UNK N   1      13.416  15.973  18.725  0.00  0.00     0.156 HD
HETATM   19  H   UNK N   1      12.851  15.397  17.143  0.00  0.00     0.156 HD
ENDBRANCH   5  17
TORSDOF 2
ENDMDL
MODEL 6
REMARK VINA RESULT:      -6.2      2.126      4.703
REMARK  2 active torsions:
REMARK  status: ('A' for Active; 'I' for Inactive)
REMARK    1  A    between atoms: N_1  and  C_7 
REMARK    2  A    between atoms: N_3  and  C_10 
REMARK       I    between atoms: N_4  and  C_13 
REMARK       I    between atoms: N_5  and  C_13 
ROOT
HETATM    1  C   UNK N   1      17.708  13.016  18.951  0.00  0.00    -0.035 A 
HETATM    2  C   UNK N   1      16.771  12.264  18.213  0.00  0.00     0.057 A 
HETATM    3  C   UNK N   1      15.431  12.220  18.621  0.00  0.00     0.059 A 
HETATM    4  C   UNK N   1      17.281  13.730  20.082  0.00  0.00     0.011 A 
HETATM    5  C   UNK N   1      15.012  12.938  19.749  0.00  0.00     0.027 A 
HETATM    6  C   UNK N   1      15.941  13.696  20.473  0.00  0.00     0.029 A 
HETATM    7  C   UNK N   1      19.150  13.064  18.532  0.00  0.00     0.050 C 
ENDROOT
BRANCH   2   8
HETATM    8  N   UNK N   1      17.169  11.552  17.051  0.00  0.00    -0.192 N 
HETATM    9  C   UNK N   1      16.937  11.976  15.853  0.00  0.00     0.669 C 
HETATM   10  N   UNK N   1      17.366  11.203  14.745  0.00  0.00    -0.235 N 
HETATM   11  N   UNK N   1      16.261  13.209  15.615  0.00  0.00    -0.235 N 
HETATM   12  H   UNK N   1      17.856  10.307  14.892  0.00  0.00     0.174 HD
HETATM   13  H   UNK N   1      17.189  11.531  13.786  0.00  0.00     0.174 HD
HETATM   14  H   UNK N   1      16.094  13.524  14.651  0.00  0.00     0.174 HD
HETATM   15  H   UNK N   1      15.934  13.806  16.389  0.00  0.00     0.174 HD
ATOM     16  HN  UNK N   1      17.661  10.665  17.167  1.00  0.00     0.184 HD
ENDBRANCH   2   8
BRANCH   5  17
HETATM   17  N   UNK N   1      13.653  12.902  20.150  0.00  0.00    -0.399 N 
HETATM   18  H   UNK N   1      13.401  12.683  21.124  0.00  0.00     0.156 HD
HETATM   19  H   UNK N   1      12.902  13.099  19.472  0.00  0.00     0.156 HD
ENDBRANCH   5  17
TORSDOF 2
ENDMDL
MODEL 7
REMARK VINA RESULT:      -5.9      9.568     11.603
REMARK  2 active torsions:
REMARK  status: ('A' for Active; 'I' for Inactive)
REMARK    1  A    between atoms: N_1  and  C_7 
REMARK    2  A    between atoms: N_3  and  C_10 
REMARK       I    between atoms: N_4  and  C_13 
REMARK       I    between atoms: N_5  and  C_13 
ROOT
HETATM    1  C   UNK N   1       9.652  18.890  16.377  0.00  0.00    -0.035 A 
HETATM    2  C   UNK N   1       9.391  18.982  17.759  0.00  0.00     0.057 A 
HETATM    3  C   UNK N   1      10.042  18.122  18.654  0.00  0.00     0.059 A 
HETATM    4  C   UNK N   1      10.578  17.944  15.912  0.00  0.00     0.011 A 
HETATM    5  C   UNK N   1      10.969  17.182  18.183  0.00  0.00     0.027 A 
HETATM    6  C   UNK N   1      11.237  17.101  16.811  0.00  0.00     0.029 A 
HETATM    7  C   UNK N   1       8.953  19.799  15.404  0.00  0.00     0.050 C 
ENDROOT
BRANCH   2   8
HETATM    8  N   UNK N   1       8.476  19.947  18.260  0.00  0.00    -0.192 N 
HETATM    9  C   UNK N   1       8.816  21.164  18.529  0.00  0.00     0.669 C 
HETATM   10  N   UNK N   1       7.842  22.064  19.030  0.00  0.00    -0.235 N 
HETATM   11  N   UNK N   1      10.150  21.628  18.332  0.00  0.00    -0.235 N 
HETATM   12  H   UNK N   1       6.871  21.751  19.182  0.00  0.00     0.174 HD
HETATM   13  H   UNK N   1       8.099  23.037  19.246  0.00  0.00     0.174 HD
HETATM   14  H   UNK N   1      10.391  22.604  18.551  0.00  0.00     0.174 HD
HETATM   15  H   UNK N   1      10.891  21.011  17.967  0.00  0.00     0.174 HD
ATOM     16  HN  UNK N   1       7.508  19.666  18.414  1.00  0.00     0.184 HD
ENDBRANCH   2   8
BRANCH   5  17
HETATM   17  N   UNK N   1      11.635  16.325  19.092  0.00  0.00    -0.399 N 
HETATM   18  H   UNK N   1      12.168  15.512  18.749  0.00  0.00     0.156 HD
HETATM   19  H   UNK N   1      11.599  16.506  20.106  0.00  0.00     0.156 HD
ENDBRANCH   5  17
TORSDOF 2
ENDMDL
MODEL 8
REMARK VINA RESULT:      -5.7      3.063      4.603
REMARK  2 active torsions:
REMARK  status: ('A' for Active; 'I' for Inactive)
REMARK    1  A    between atoms: N_1  and  C_7 
REMARK    2  A    between atoms: N_3  and  C_10 
REMARK       I    between atoms: N_4  and  C_13 
REMARK       I    between atoms: N_5  and  C_13 
ROOT
HETATM    1  C   UNK N   1      14.729  12.150  19.166  0.00  0.00    -0.035 A 
HETATM    2  C   UNK N   1      14.492  12.780  17.927  0.00  0.00     0.057 A 
HETATM    3  C   UNK N   1      15.437  12.676  16.898  0.00  0.00     0.059 A 
HETATM    4  C   UNK N   1      15.907  11.408  19.349  0.00  0.00     0.011 A 
HETATM    5  C   UNK N   1      16.609  11.930  17.086  0.00  0.00     0.027 A 
HETATM    6  C   UNK N   1      16.836  11.294  18.313  0.00  0.00     0.029 A 
HETATM    7  C   UNK N   1      13.730  12.261  20.284  0.00  0.00     0.050 C 
ENDROOT
BRANCH   2   8
HETATM    8  N   UNK N   1      13.298  13.516  17.706  0.00  0.00    -0.192 N 
HETATM    9  C   UNK N   1      13.284  14.795  17.527  0.00  0.00     0.669 C 
HETATM   10  N   UNK N   1      12.047  15.454  17.315  0.00  0.00    -0.235 N 
HETATM   11  N   UNK N   1      14.486  15.564  17.535  0.00  0.00    -0.235 N 
HETATM   12  H   UNK N   1      11.166  14.920  17.307  0.00  0.00     0.174 HD
HETATM   13  H   UNK N   1      12.022  16.473  17.169  0.00  0.00     0.174 HD
HETATM   14  H   UNK N   1      14.444  16.580  17.386  0.00  0.00     0.174 HD
HETATM   15  H   UNK N   1      15.408  15.127  17.682  0.00  0.00     0.174 HD
ATOM     16  HN  UNK N   1      12.412  13.011  17.687  1.00  0.00     0.184 HD
ENDBRANCH   2   8
BRANCH   5  17
HETATM   17  N   UNK N   1      17.554  11.816  16.037  0.00  0.00    -0.399 N 
HETATM   18  H   UNK N   1      17.462  12.388  15.186  0.00  0.00     0.156 HD
HETATM   19  H   UNK N   1      18.347  11.162  16.116  0.00  0.00     0.156 HD
ENDBRANCH   5  17
TORSDOF 2
ENDMDL
MODEL 9
REMARK VINA RESULT:      -5.5     10.981     12.930
REMARK  2 active torsions:
REMARK  status: ('A' for Active; 'I' for Inactive)
REMARK    1  A    between atoms: N_1  and  C_7 
REMARK    2  A    between atoms: N_3  and  C_10 
REMARK       I    between atoms: N_4  and  C_13 
REMARK       I    between atoms: N_5  and  C_13 
ROOT
HETATM    1  C   UNK N   1       8.101  20.556  16.938  0.00  0.00    -0.035 A 
HETATM    2  C   UNK N   1       8.430  19.935  18.160  0.00  0.00     0.057 A 
HETATM    3  C   UNK N   1       9.355  18.882  18.184  0.00  0.00     0.059 A 
HETATM    4  C   UNK N   1       8.719  20.120  15.755  0.00  0.00     0.011 A 
HETATM    5  C   UNK N   1       9.971  18.455  17.000  0.00  0.00     0.027 A 
HETATM    6  C   UNK N   1       9.653  19.082  15.788  0.00  0.00     0.029 A 
HETATM    7  C   UNK N   1       7.103  21.679  16.895  0.00  0.00     0.050 C 
ENDROOT
BRANCH   2   8
HETATM    8  N   UNK N   1       7.839  20.371  19.375  0.00  0.00    -0.192 N 
HETATM    9  C   UNK N   1       8.355  21.295  20.116  0.00  0.00     0.669 C 
HETATM   10  N   UNK N   1       7.702  21.670  21.317  0.00  0.00    -0.235 N 
HETATM   11  N   UNK N   1       9.568  21.953  19.753  0.00  0.00    -0.235 N 
HETATM   12  H   UNK N   1       6.825  21.208  21.600  0.00  0.00     0.174 HD
HETATM   13  H   UNK N   1       8.101  22.406  21.915  0.00  0.00     0.174 HD
HETATM   14  H   UNK N   1       9.953  22.687  20.361  0.00  0.00     0.174 HD
HETATM   15  H   UNK N   1      10.075  21.716  18.889  0.00  0.00     0.174 HD
ATOM     16  HN  UNK N   1       6.967  19.935  19.676  1.00  0.00     0.184 HD
ENDBRANCH   2   8
BRANCH   5  17
HETATM   17  N   UNK N   1      10.916  17.401  17.031  0.00  0.00    -0.399 N 
HETATM   18  H   UNK N   1      11.063  16.806  16.202  0.00  0.00     0.156 HD
HETATM   19  H   UNK N   1      11.469  17.218  17.881  0.00  0.00     0.156 HD
ENDBRANCH   5  17
TORSDOF 2
ENDMDL
