MODEL 1
REMARK VINA RESULT:     -10.3      0.000      0.000
REMARK  6 active torsions:
REMARK  status: ('A' for Active; 'I' for Inactive)
REMARK    1  A    between atoms: N_2  and  C_16 
REMARK       I    between atoms: N_4  and  C_23 
REMARK    2  A    between atoms: N_4  and  C_24 
REMARK    3  A    between atoms: N_5  and  C_25 
REMARK       I    between atoms: N_5  and  C_31 
REMARK    4  A    between atoms: C_16  and  C_17 
REMARK    5  A    between atoms: C_22  and  C_23 
REMARK    6  A    between atoms: C_32  and  C_33 
ROOT
HETATM    1  C   UNK N   1      10.894  17.822  16.882  0.00  0.00     0.037 A 
HETATM    2  C   UNK N   1       9.114  19.168  17.809  0.00  0.00     0.057 A 
HETATM    3  C   UNK N   1      10.044  18.136  17.942  0.00  0.00     0.060 A 
HETATM    4  C   UNK N   1       9.034  19.884  16.616  0.00  0.00    -0.035 A 
HETATM    5  C   UNK N   1      10.814  18.539  15.688  0.00  0.00     0.030 A 
HETATM    6  C   UNK N   1       9.884  19.570  15.555  0.00  0.00     0.011 A 
HETATM    7  C   UNK N   1       8.047  20.994  16.444  0.00  0.00     0.050 C 
ENDROOT
BRANCH   1   8
HETATM    8  N   UNK N   1      11.839  16.776  17.018  0.00  0.00    -0.323 N 
HETATM    9  C   UNK N   1      12.106  15.981  18.141  0.00  0.00     0.256 C 
HETATM   10  O   UNK N   1      11.529  16.078  19.236  0.00  0.00    -0.267 OA
HETATM   11  H   UNK N   1      12.403  16.636  16.184  0.00  0.00     0.169 HD
BRANCH   9  12
HETATM   12  C   UNK N   1      13.125  14.957  17.967  0.00  0.00     0.032 A 
HETATM   13  C   UNK N   1      14.092  15.100  16.972  0.00  0.00     0.017 A 
HETATM   14  C   UNK N   1      15.069  14.119  16.804  0.00  0.00     0.010 A 
HETATM   15  C   UNK N   1      15.080  12.996  17.632  0.00  0.00    -0.030 A 
HETATM   16  C   UNK N   1      14.112  12.854  18.626  0.00  0.00     0.010 A 
HETATM   17  C   UNK N   1      13.134  13.834  18.794  0.00  0.00     0.017 A 
BRANCH  15  18
HETATM   18  C   UNK N   1      16.135  11.937  17.452  0.00  0.00     0.311 C 
BRANCH  18  19
HETATM   19  N   UNK N   1      17.439  12.517  17.135  0.00  0.00     0.096 N 
HETATM   20  C   UNK N   1      18.041  11.847  15.976  0.00  0.00     0.302 C 
HETATM   21  C   UNK N   1      19.410  12.449  15.653  0.00  0.00     0.299 C 
HETATM   22  N   UNK N   1      20.315  12.385  16.803  0.00  0.00     0.086 N 
HETATM   23  C   UNK N   1      19.704  13.046  17.960  0.00  0.00     0.299 C 
HETATM   24  H   UNK N   1      21.194  12.846  16.573  0.00  0.00     0.315 HD
HETATM   25  C   UNK N   1      18.336  12.447  18.296  0.00  0.00     0.302 C 
ENDBRANCH  18  19
ENDBRANCH  15  18
ENDBRANCH   9  12
ENDBRANCH   1   8
BRANCH   2  26
HETATM   26  N   UNK N   1       8.261  19.471  18.893  0.00  0.00    -0.191 N 
HETATM   27  C   UNK N   1       8.459  19.482  20.286  0.00  0.00     0.683 A 
HETATM   28  N   UNK N   1       9.686  19.147  20.722  0.00  0.00    -0.191 N 
HETATM   29  N   UNK N   1       7.398  19.830  21.041  0.00  0.00    -0.202 N 
HETATM   30  C   UNK N   1       9.842  19.173  22.063  0.00  0.00     0.062 A 
ATOM     31  HN  UNK N   1      10.444  18.895  20.088  1.00  0.00     0.184 HD
HETATM   32  C   UNK N   1       8.836  19.512  22.944  0.00  0.00     0.048 A 
HETATM   33  C   UNK N   1       7.623  19.835  22.370  0.00  0.00     0.108 A 
ATOM     34  HN  UNK N   1       6.493  20.072  20.637  1.00  0.00     0.183 HD
HETATM   35  H   UNK N   1       7.349  19.833  18.632  0.00  0.00     0.184 HD
BRANCH  30  36
HETATM   36  C   UNK N   1      11.158  18.814  22.535  0.00  0.00     0.007 A 
HETATM   37  C   UNK N   1      11.550  19.090  23.840  0.00  0.00     0.016 A 
HETATM   38  C   UNK N   1      12.825  18.732  24.268  0.00  0.00     0.018 A 
HETATM   39  C   UNK N   1      13.661  18.107  23.358  0.00  0.00     0.087 A 
HETATM   40  N   UNK N   1      13.315  17.822  22.083  0.00  0.00    -0.374 N 
HETATM   41  C   UNK N   1      12.069  18.184  21.703  0.00  0.00     0.101 A 
ATOM     42  HN  UNK N   1      13.959  17.360  21.441  1.00  0.00     0.164 HD
ENDBRANCH  30  36
ENDBRANCH   2  26
TORSDOF 6
ENDMDL
MODEL 2
REMARK VINA RESULT:      -9.6      2.074      2.336
REMARK  6 active torsions:
REMARK  status: ('A' for Active; 'I' for Inactive)
REMARK    1  A    between atoms: N_2  and  C_16 
REMARK       I    between atoms: N_4  and  C_23 
REMARK    2  A    between atoms: N_4  and  C_24 
REMARK    3  A    between atoms: N_5  and  C_25 
REMARK       I    between atoms: N_5  and  C_31 
REMARK    4  A    between atoms: C_16  and  C_17 
REMARK    5  A    between atoms: C_22  and  C_23 
REMARK    6  A    between atoms: C_32  and  C_33 
ROOT
HETATM    1  C   UNK N   1      10.729  17.509  18.571  0.00  0.00     0.037 A 
HETATM    2  C   UNK N   1       9.028  18.704  19.804  0.00  0.00     0.057 A 
HETATM    3  C   UNK N   1      10.047  17.750  19.763  0.00  0.00     0.060 A 
HETATM    4  C   UNK N   1       8.694  19.416  18.653  0.00  0.00    -0.035 A 
HETATM    5  C   UNK N   1      10.394  18.221  17.420  0.00  0.00     0.030 A 
HETATM    6  C   UNK N   1       9.377  19.175  17.461  0.00  0.00     0.011 A 
HETATM    7  C   UNK N   1       7.609  20.443  18.667  0.00  0.00     0.050 C 
ENDROOT
BRANCH   1   8
HETATM    8  N   UNK N   1      11.763  16.542  18.530  0.00  0.00    -0.323 N 
HETATM    9  C   UNK N   1      11.983  15.539  17.576  0.00  0.00     0.256 C 
HETATM   10  O   UNK N   1      11.273  15.337  16.577  0.00  0.00    -0.267 OA
HETATM   11  H   UNK N   1      12.386  16.588  19.331  0.00  0.00     0.169 HD
BRANCH   9  12
HETATM   12  C   UNK N   1      13.156  14.706  17.789  0.00  0.00     0.032 A 
HETATM   13  C   UNK N   1      14.275  14.856  16.970  0.00  0.00     0.017 A 
HETATM   14  C   UNK N   1      15.401  14.059  17.174  0.00  0.00     0.010 A 
HETATM   15  C   UNK N   1      15.408  13.111  18.198  0.00  0.00    -0.030 A 
HETATM   16  C   UNK N   1      14.289  12.960  19.016  0.00  0.00     0.010 A 
HETATM   17  C   UNK N   1      13.163  13.758  18.813  0.00  0.00     0.017 A 
BRANCH  15  18
HETATM   18  C   UNK N   1      16.622  12.249  18.419  0.00  0.00     0.311 C 
BRANCH  18  19
HETATM   19  N   UNK N   1      17.705  12.589  17.497  0.00  0.00     0.096 N 
HETATM   20  C   UNK N   1      17.688  11.707  16.323  0.00  0.00     0.302 C 
HETATM   21  C   UNK N   1      18.829  12.058  15.365  0.00  0.00     0.299 C 
HETATM   22  N   UNK N   1      20.133  11.997  16.029  0.00  0.00     0.086 N 
HETATM   23  C   UNK N   1      20.140  12.871  17.205  0.00  0.00     0.299 C 
HETATM   24  H   UNK N   1      20.861  12.293  15.380  0.00  0.00     0.315 HD
HETATM   25  C   UNK N   1      19.006  12.524  18.174  0.00  0.00     0.302 C 
ENDBRANCH  18  19
ENDBRANCH  15  18
ENDBRANCH   9  12
ENDBRANCH   1   8
BRANCH   2  26
HETATM   26  N   UNK N   1       8.347  18.933  21.020  0.00  0.00    -0.191 N 
HETATM   27  C   UNK N   1       8.638  19.739  22.137  0.00  0.00     0.683 A 
HETATM   28  N   UNK N   1       9.777  20.452  22.084  0.00  0.00    -0.191 N 
HETATM   29  N   UNK N   1       7.743  19.715  23.144  0.00  0.00    -0.202 N 
HETATM   30  C   UNK N   1      10.022  21.216  23.170  0.00  0.00     0.062 A 
ATOM     31  HN  UNK N   1      10.409  20.420  21.284  1.00  0.00     0.184 HD
HETATM   32  C   UNK N   1       9.186  21.280  24.266  0.00  0.00     0.048 A 
HETATM   33  C   UNK N   1       8.049  20.501  24.196  0.00  0.00     0.108 A 
ATOM     34  HN  UNK N   1       6.897  19.146  23.112  1.00  0.00     0.183 HD
HETATM   35  H   UNK N   1       7.428  18.508  21.082  0.00  0.00     0.184 HD
BRANCH  30  36
HETATM   36  C   UNK N   1      11.244  21.983  23.118  0.00  0.00     0.007 A 
HETATM   37  C   UNK N   1      11.233  23.321  22.742  0.00  0.00     0.016 A 
HETATM   38  C   UNK N   1      12.427  24.036  22.702  0.00  0.00     0.018 A 
HETATM   39  C   UNK N   1      13.592  23.370  23.043  0.00  0.00     0.087 A 
HETATM   40  N   UNK N   1      13.641  22.070  23.413  0.00  0.00    -0.374 N 
HETATM   41  C   UNK N   1      12.463  21.409  23.441  0.00  0.00     0.101 A 
ATOM     42  HN  UNK N   1      14.520  21.613  23.657  1.00  0.00     0.164 HD
ENDBRANCH  30  36
ENDBRANCH   2  26
TORSDOF 6
ENDMDL
MODEL 3
REMARK VINA RESULT:      -9.6      2.618     10.995
REMARK  6 active torsions:
REMARK  status: ('A' for Active; 'I' for Inactive)
REMARK    1  A    between atoms: N_2  and  C_16 
REMARK       I    between atoms: N_4  and  C_23 
REMARK    2  A    between atoms: N_4  and  C_24 
REMARK    3  A    between atoms: N_5  and  C_25 
REMARK       I    between atoms: N_5  and  C_31 
REMARK    4  A    between atoms: C_16  and  C_17 
REMARK    5  A    between atoms: C_22  and  C_23 
REMARK    6  A    between atoms: C_32  and  C_33 
ROOT
HETATM    1  C   UNK N   1      13.281  13.855  18.936  0.00  0.00     0.037 A 
HETATM    2  C   UNK N   1      15.513  13.067  19.423  0.00  0.00     0.057 A 
HETATM    3  C   UNK N   1      14.622  14.120  19.215  0.00  0.00     0.060 A 
HETATM    4  C   UNK N   1      15.063  11.749  19.352  0.00  0.00    -0.035 A 
HETATM    5  C   UNK N   1      12.831  12.538  18.866  0.00  0.00     0.030 A 
HETATM    6  C   UNK N   1      13.722  11.484  19.074  0.00  0.00     0.011 A 
HETATM    7  C   UNK N   1      15.994  10.601  19.570  0.00  0.00     0.050 C 
ENDROOT
BRANCH   1   8
HETATM    8  N   UNK N   1      12.377  14.925  18.727  0.00  0.00    -0.323 N 
HETATM    9  C   UNK N   1      12.367  15.871  17.692  0.00  0.00     0.256 C 
HETATM   10  O   UNK N   1      13.188  15.917  16.761  0.00  0.00    -0.267 OA
HETATM   11  H   UNK N   1      11.679  15.009  19.461  0.00  0.00     0.169 HD
BRANCH   9  12
HETATM   12  C   UNK N   1      11.285  16.842  17.729  0.00  0.00     0.032 A 
HETATM   13  C   UNK N   1      11.015  17.626  16.609  0.00  0.00     0.017 A 
HETATM   14  C   UNK N   1       9.977  18.558  16.643  0.00  0.00     0.010 A 
HETATM   15  C   UNK N   1       9.209  18.704  17.798  0.00  0.00    -0.030 A 
HETATM   16  C   UNK N   1       9.480  17.920  18.920  0.00  0.00     0.010 A 
HETATM   17  C   UNK N   1      10.518  16.988  18.885  0.00  0.00     0.017 A 
BRANCH  15  18
HETATM   18  C   UNK N   1       8.089  19.709  17.837  0.00  0.00     0.311 C 
BRANCH  18  19
HETATM   19  N   UNK N   1       7.970  20.340  19.150  0.00  0.00     0.096 N 
HETATM   20  C   UNK N   1       6.657  20.977  19.306  0.00  0.00     0.302 C 
HETATM   21  C   UNK N   1       6.538  21.646  20.677  0.00  0.00     0.299 C 
HETATM   22  N   UNK N   1       7.607  22.624  20.898  0.00  0.00     0.086 N 
HETATM   23  C   UNK N   1       8.915  21.984  20.730  0.00  0.00     0.299 C 
HETATM   24  H   UNK N   1       7.532  23.005  21.840  0.00  0.00     0.315 HD
HETATM   25  C   UNK N   1       9.046  21.317  19.358  0.00  0.00     0.302 C 
ENDBRANCH  18  19
ENDBRANCH  15  18
ENDBRANCH   9  12
ENDBRANCH   1   8
BRANCH   2  26
HETATM   26  N   UNK N   1      16.867  13.354  19.702  0.00  0.00    -0.191 N 
HETATM   27  C   UNK N   1      18.050  13.184  18.958  0.00  0.00     0.683 A 
HETATM   28  N   UNK N   1      17.917  12.648  17.731  0.00  0.00    -0.191 N 
HETATM   29  N   UNK N   1      19.194  13.579  19.550  0.00  0.00    -0.202 N 
HETATM   30  C   UNK N   1      19.070  12.504  17.044  0.00  0.00     0.062 A 
ATOM     31  HN  UNK N   1      17.013  12.373  17.347  1.00  0.00     0.184 HD
HETATM   32  C   UNK N   1      20.306  12.869  17.537  0.00  0.00     0.048 A 
HETATM   33  C   UNK N   1      20.307  13.407  18.808  0.00  0.00     0.108 A 
ATOM     34  HN  UNK N   1      19.216  13.978  20.488  1.00  0.00     0.183 HD
HETATM   35  H   UNK N   1      17.028  13.856  20.568  0.00  0.00     0.184 HD
BRANCH  30  36
HETATM   36  C   UNK N   1      18.932  11.929  15.728  0.00  0.00     0.007 A 
HETATM   37  C   UNK N   1      20.050  11.609  14.966  0.00  0.00     0.016 A 
HETATM   38  C   UNK N   1      19.887  11.055  13.700  0.00  0.00     0.018 A 
HETATM   39  C   UNK N   1      18.595  10.844  13.246  0.00  0.00     0.087 A 
HETATM   40  N   UNK N   1      17.485  11.143  13.958  0.00  0.00    -0.374 N 
HETATM   41  C   UNK N   1      17.683  11.679  15.183  0.00  0.00     0.101 A 
ATOM     42  HN  UNK N   1      16.548  10.974  13.591  1.00  0.00     0.164 HD
ENDBRANCH  30  36
ENDBRANCH   2  26
TORSDOF 6
ENDMDL
MODEL 4
REMARK VINA RESULT:      -8.1      1.460      2.048
REMARK  6 active torsions:
REMARK  status: ('A' for Active; 'I' for Inactive)
REMARK    1  A    between atoms: N_2  and  C_16 
REMARK       I    between atoms: N_4  and  C_23 
REMARK    2  A    between atoms: N_4  and  C_24 
REMARK    3  A    between atoms: N_5  and  C_25 
REMARK       I    between atoms: N_5  and  C_31 
REMARK    4  A    between atoms: C_16  and  C_17 
REMARK    5  A    between atoms: C_22  and  C_23 
REMARK    6  A    between atoms: C_32  and  C_33 
ROOT
HETATM    1  C   UNK N   1      11.380  16.593  17.558  0.00  0.00     0.037 A 
HETATM    2  C   UNK N   1       9.503  17.592  18.706  0.00  0.00     0.057 A 
HETATM    3  C   UNK N   1      10.501  16.618  18.640  0.00  0.00     0.060 A 
HETATM    4  C   UNK N   1       9.386  18.539  17.690  0.00  0.00    -0.035 A 
HETATM    5  C   UNK N   1      11.263  17.540  16.542  0.00  0.00     0.030 A 
HETATM    6  C   UNK N   1      10.266  18.514  16.608  0.00  0.00     0.011 A 
HETATM    7  C   UNK N   1       8.328  19.593  17.733  0.00  0.00     0.050 C 
ENDROOT
BRANCH   1   8
HETATM    8  N   UNK N   1      12.393  15.605  17.493  0.00  0.00    -0.323 N 
HETATM    9  C   UNK N   1      13.144  15.053  18.540  0.00  0.00     0.256 C 
HETATM   10  O   UNK N   1      13.030  15.361  19.738  0.00  0.00    -0.267 OA
HETATM   11  H   UNK N   1      12.602  15.308  16.544  0.00  0.00     0.169 HD
BRANCH   9  12
HETATM   12  C   UNK N   1      14.103  14.027  18.162  0.00  0.00     0.032 A 
HETATM   13  C   UNK N   1      14.369  12.969  19.031  0.00  0.00     0.017 A 
HETATM   14  C   UNK N   1      15.288  11.984  18.669  0.00  0.00     0.010 A 
HETATM   15  C   UNK N   1      15.941  12.057  17.438  0.00  0.00    -0.030 A 
HETATM   16  C   UNK N   1      15.675  13.116  16.570  0.00  0.00     0.010 A 
HETATM   17  C   UNK N   1      14.756  14.101  16.931  0.00  0.00     0.017 A 
BRANCH  15  18
HETATM   18  C   UNK N   1      16.933  10.995  17.047  0.00  0.00     0.311 C 
BRANCH  18  19
HETATM   19  N   UNK N   1      18.305  11.498  17.070  0.00  0.00     0.096 N 
HETATM   20  C   UNK N   1      18.453  12.568  18.063  0.00  0.00     0.302 C 
HETATM   21  C   UNK N   1      19.888  13.100  18.078  0.00  0.00     0.299 C 
HETATM   22  N   UNK N   1      20.304  13.574  16.755  0.00  0.00     0.086 N 
HETATM   23  C   UNK N   1      20.143  12.505  15.766  0.00  0.00     0.299 C 
HETATM   24  H   UNK N   1      21.280  13.865  16.788  0.00  0.00     0.315 HD
HETATM   25  C   UNK N   1      18.709  11.969  15.739  0.00  0.00     0.302 C 
ENDBRANCH  18  19
ENDBRANCH  15  18
ENDBRANCH   9  12
ENDBRANCH   1   8
BRANCH   2  26
HETATM   26  N   UNK N   1       8.620  17.601  19.808  0.00  0.00    -0.191 N 
HETATM   27  C   UNK N   1       8.731  18.116  21.113  0.00  0.00     0.683 A 
HETATM   28  N   UNK N   1       9.887  18.733  21.420  0.00  0.00    -0.191 N 
HETATM   29  N   UNK N   1       7.667  17.941  21.921  0.00  0.00    -0.202 N 
HETATM   30  C   UNK N   1       9.958  19.218  22.677  0.00  0.00     0.062 A 
ATOM     31  HN  UNK N   1      10.652  18.828  20.752  1.00  0.00     0.184 HD
HETATM   32  C   UNK N   1       8.938  19.105  23.601  0.00  0.00     0.048 A 
HETATM   33  C   UNK N   1       7.805  18.450  23.162  0.00  0.00     0.108 A 
ATOM     34  HN  UNK N   1       6.821  17.461  21.616  1.00  0.00     0.183 HD
HETATM   35  H   UNK N   1       7.690  17.245  19.614  0.00  0.00     0.184 HD
BRANCH  30  36
HETATM   36  C   UNK N   1      11.196  19.880  23.011  0.00  0.00     0.007 A 
HETATM   37  C   UNK N   1      12.371  19.156  23.182  0.00  0.00     0.016 A 
HETATM   38  C   UNK N   1      13.550  19.822  23.503  0.00  0.00     0.018 A 
HETATM   39  C   UNK N   1      13.500  21.199  23.641  0.00  0.00     0.087 A 
HETATM   40  N   UNK N   1      12.377  21.935  23.483  0.00  0.00    -0.374 N 
HETATM   41  C   UNK N   1      11.252  21.255  23.171  0.00  0.00     0.101 A 
ATOM     42  HN  UNK N   1      12.379  22.949  23.593  1.00  0.00     0.164 HD
ENDBRANCH  30  36
ENDBRANCH   2  26
TORSDOF 6
ENDMDL
