MODEL 1
REMARK VINA RESULT:      -7.2      0.000      0.000
REMARK  3 active torsions:
REMARK  status: ('A' for Active; 'I' for Inactive)
REMARK    1  A    between atoms: N_2  and  C_13 
REMARK       I    between atoms: N_4  and  C_17 
REMARK    2  A    between atoms: C_13  and  C_15 
REMARK    3  A    between atoms: C_17  and  C_19 
ROOT
HETATM    1  C   UNK N   1      10.062  17.076  18.140  0.00  0.00    -0.030 A 
HETATM    2  C   UNK N   1      12.471  15.713  17.673  0.00  0.00     0.032 A 
HETATM    3  C   UNK N   1      10.397  16.651  16.842  0.00  0.00     0.010 A 
HETATM    4  C   UNK N   1      10.939  16.809  19.202  0.00  0.00     0.010 A 
HETATM    5  C   UNK N   1      11.592  15.962  16.613  0.00  0.00     0.017 A 
HETATM    6  C   UNK N   1      12.142  16.140  18.967  0.00  0.00     0.017 A 
ENDROOT
BRANCH   2   7
HETATM    7  C   UNK N   1      13.748  15.009  17.439  0.00  0.00     0.253 C 
HETATM    8  O   UNK N   1      14.622  15.597  16.819  0.00  0.00    -0.267 OA
HETATM    9  N   UNK N   1      13.931  13.704  17.836  0.00  0.00    -0.344 N 
HETATM   10  C   UNK N   1      15.155  12.978  17.507  0.00  0.00     0.161 C 
HETATM   11  C   UNK N   1      12.925  12.966  18.591  0.00  0.00     0.156 C 
HETATM   12  C   UNK N   1      15.760  12.393  18.797  0.00  0.00     0.234 C 
HETATM   13  N   UNK N   1      14.745  11.581  19.495  0.00  0.00     0.090 N 
HETATM   14  C   UNK N   1      16.977  11.528  18.456  0.00  0.00     0.044 C 
HETATM   15  C   UNK N   1      13.577  12.399  19.856  0.00  0.00     0.290 C 
HETATM   16  H   UNK N   1      15.156  11.187  20.373  0.00  0.00     0.316 HD
ENDBRANCH   2   7
BRANCH   1  17
HETATM   17  C   UNK N   1       8.772  17.812  18.384  0.00  0.00     0.311 C 
BRANCH  17  18
HETATM   18  N   UNK N   1       9.026  19.067  19.123  0.00  0.00     0.096 N 
HETATM   19  C   UNK N   1       8.540  18.938  20.518  0.00  0.00     0.303 C 
HETATM   20  C   UNK N   1       8.780  20.233  21.296  0.00  0.00     0.302 C 
HETATM   21  N   UNK N   1       8.100  21.355  20.622  0.00  0.00     0.087 N 
HETATM   22  C   UNK N   1       8.603  21.495  19.244  0.00  0.00     0.302 C 
HETATM   23  C   UNK N   1       8.304  22.601  21.375  0.00  0.00     0.310 C 
HETATM   24  C   UNK N   1       8.349  20.200  18.462  0.00  0.00     0.303 C 
ENDBRANCH  17  18
ENDBRANCH   1  17
TORSDOF 3
ENDMDL
MODEL 2
REMARK VINA RESULT:      -7.2      2.883      9.316
REMARK  3 active torsions:
REMARK  status: ('A' for Active; 'I' for Inactive)
REMARK    1  A    between atoms: N_2  and  C_13 
REMARK       I    between atoms: N_4  and  C_17 
REMARK    2  A    between atoms: C_13  and  C_15 
REMARK    3  A    between atoms: C_17  and  C_19 
ROOT
HETATM    1  C   UNK N   1      14.902  12.972  17.765  0.00  0.00    -0.030 A 
HETATM    2  C   UNK N   1      13.038  15.026  18.192  0.00  0.00     0.032 A 
HETATM    3  C   UNK N   1      14.947  14.144  16.989  0.00  0.00     0.010 A 
HETATM    4  C   UNK N   1      13.921  12.839  18.758  0.00  0.00     0.010 A 
HETATM    5  C   UNK N   1      14.024  15.171  17.210  0.00  0.00     0.017 A 
HETATM    6  C   UNK N   1      12.987  13.857  18.963  0.00  0.00     0.017 A 
ENDROOT
BRANCH   2   7
HETATM    7  C   UNK N   1      12.042  16.093  18.417  0.00  0.00     0.253 C 
HETATM    8  O   UNK N   1      12.057  16.674  19.493  0.00  0.00    -0.267 OA
HETATM    9  N   UNK N   1      11.074  16.381  17.482  0.00  0.00    -0.344 N 
HETATM   10  C   UNK N   1      10.028  17.362  17.754  0.00  0.00     0.161 C 
HETATM   11  C   UNK N   1      11.024  15.727  16.180  0.00  0.00     0.156 C 
HETATM   12  C   UNK N   1      10.000  18.404  16.620  0.00  0.00     0.234 C 
HETATM   13  N   UNK N   1       9.863  17.716  15.321  0.00  0.00     0.090 N 
HETATM   14  C   UNK N   1       8.831  19.371  16.826  0.00  0.00     0.044 C 
HETATM   15  C   UNK N   1      10.992  16.803  15.089  0.00  0.00     0.290 C 
HETATM   16  H   UNK N   1       9.849  18.425  14.551  0.00  0.00     0.316 HD
ENDBRANCH   2   7
BRANCH   1  17
HETATM   17  C   UNK N   1      15.901  11.871  17.527  0.00  0.00     0.311 C 
BRANCH  17  18
HETATM   18  N   UNK N   1      17.182  12.431  17.046  0.00  0.00     0.096 N 
HETATM   19  C   UNK N   1      17.597  11.743  15.800  0.00  0.00     0.303 C 
HETATM   20  C   UNK N   1      18.929  12.298  15.294  0.00  0.00     0.302 C 
HETATM   21  N   UNK N   1      19.964  12.138  16.332  0.00  0.00     0.087 N 
HETATM   22  C   UNK N   1      19.559  12.843  17.561  0.00  0.00     0.302 C 
HETATM   23  C   UNK N   1      21.255  12.647  15.847  0.00  0.00     0.310 C 
HETATM   24  C   UNK N   1      18.230  12.276  18.073  0.00  0.00     0.303 C 
ENDBRANCH  17  18
ENDBRANCH   1  17
TORSDOF 3
ENDMDL
MODEL 3
REMARK VINA RESULT:      -6.9      3.429      5.921
REMARK  3 active torsions:
REMARK  status: ('A' for Active; 'I' for Inactive)
REMARK    1  A    between atoms: N_2  and  C_13 
REMARK       I    between atoms: N_4  and  C_17 
REMARK    2  A    between atoms: C_13  and  C_15 
REMARK    3  A    between atoms: C_17  and  C_19 
ROOT
HETATM    1  C   UNK N   1      14.331  13.721  17.971  0.00  0.00    -0.030 A 
HETATM    2  C   UNK N   1      16.306  12.525  16.376  0.00  0.00     0.032 A 
HETATM    3  C   UNK N   1      14.833  12.450  18.299  0.00  0.00     0.010 A 
HETATM    4  C   UNK N   1      14.827  14.390  16.843  0.00  0.00     0.010 A 
HETATM    5  C   UNK N   1      15.826  11.860  17.510  0.00  0.00     0.017 A 
HETATM    6  C   UNK N   1      15.803  13.790  16.044  0.00  0.00     0.017 A 
ENDROOT
BRANCH   2   7
HETATM    7  C   UNK N   1      17.335  11.901  15.520  0.00  0.00     0.253 C 
HETATM    8  O   UNK N   1      16.976  11.396  14.466  0.00  0.00    -0.267 OA
HETATM    9  N   UNK N   1      18.649  11.816  15.923  0.00  0.00    -0.344 N 
HETATM   10  C   UNK N   1      19.641  11.105  15.123  0.00  0.00     0.161 C 
HETATM   11  C   UNK N   1      19.127  12.415  17.163  0.00  0.00     0.156 C 
HETATM   12  C   UNK N   1      20.839  12.034  14.854  0.00  0.00     0.234 C 
HETATM   13  N   UNK N   1      21.356  12.556  16.133  0.00  0.00     0.090 N 
HETATM   14  C   UNK N   1      21.941  11.266  14.119  0.00  0.00     0.044 C 
HETATM   15  C   UNK N   1      20.320  13.322  16.843  0.00  0.00     0.290 C 
HETATM   16  H   UNK N   1      22.167  13.192  15.949  0.00  0.00     0.316 HD
ENDBRANCH   2   7
BRANCH   1  17
HETATM   17  C   UNK N   1      13.267  14.356  18.827  0.00  0.00     0.311 C 
BRANCH  17  18
HETATM   18  N   UNK N   1      12.637  15.486  18.112  0.00  0.00     0.096 N 
HETATM   19  C   UNK N   1      11.755  16.238  19.037  0.00  0.00     0.303 C 
HETATM   20  C   UNK N   1      11.080  17.404  18.312  0.00  0.00     0.302 C 
HETATM   21  N   UNK N   1      10.303  16.898  17.166  0.00  0.00     0.087 N 
HETATM   22  C   UNK N   1      11.187  16.172  16.237  0.00  0.00     0.302 C 
HETATM   23  C   UNK N   1       9.631  18.009  16.476  0.00  0.00     0.310 C 
HETATM   24  C   UNK N   1      11.852  14.996  16.963  0.00  0.00     0.303 C 
ENDBRANCH  17  18
ENDBRANCH   1  17
TORSDOF 3
ENDMDL
MODEL 4
REMARK VINA RESULT:      -6.3      2.058      8.888
REMARK  3 active torsions:
REMARK  status: ('A' for Active; 'I' for Inactive)
REMARK    1  A    between atoms: N_2  and  C_13 
REMARK       I    between atoms: N_4  and  C_17 
REMARK    2  A    between atoms: C_13  and  C_15 
REMARK    3  A    between atoms: C_17  and  C_19 
ROOT
HETATM    1  C   UNK N   1      11.377  16.429  17.987  0.00  0.00    -0.030 A 
HETATM    2  C   UNK N   1       9.560  17.805  19.624  0.00  0.00     0.032 A 
HETATM    3  C   UNK N   1      10.094  16.748  17.510  0.00  0.00     0.010 A 
HETATM    4  C   UNK N   1      11.745  16.807  19.286  0.00  0.00     0.010 A 
HETATM    5  C   UNK N   1       9.193  17.444  18.323  0.00  0.00     0.017 A 
HETATM    6  C   UNK N   1      10.837  17.483  20.104  0.00  0.00     0.017 A 
ENDROOT
BRANCH   2   7
HETATM    7  C   UNK N   1       8.608  18.517  20.501  0.00  0.00     0.253 C 
HETATM    8  O   UNK N   1       8.160  17.917  21.467  0.00  0.00    -0.267 OA
HETATM    9  N   UNK N   1       8.175  19.789  20.207  0.00  0.00    -0.344 N 
HETATM   10  C   UNK N   1       7.155  20.447  21.017  0.00  0.00     0.161 C 
HETATM   11  C   UNK N   1       8.692  20.550  19.075  0.00  0.00     0.156 C 
HETATM   12  C   UNK N   1       7.677  21.821  21.476  0.00  0.00     0.234 C 
HETATM   13  N   UNK N   1       8.113  22.601  20.302  0.00  0.00     0.090 N 
HETATM   14  C   UNK N   1       6.575  22.576  22.225  0.00  0.00     0.044 C 
HETATM   15  C   UNK N   1       9.192  21.907  19.582  0.00  0.00     0.290 C 
HETATM   16  H   UNK N   1       8.473  23.533  20.616  0.00  0.00     0.316 HD
ENDBRANCH   2   7
BRANCH   1  17
HETATM   17  C   UNK N   1      12.346  15.685  17.106  0.00  0.00     0.311 C 
BRANCH  17  18
HETATM   18  N   UNK N   1      13.216  14.810  17.920  0.00  0.00     0.096 N 
HETATM   19  C   UNK N   1      14.609  14.874  17.416  0.00  0.00     0.303 C 
HETATM   20  C   UNK N   1      15.523  13.962  18.236  0.00  0.00     0.302 C 
HETATM   21  N   UNK N   1      15.025  12.576  18.183  0.00  0.00     0.087 N 
HETATM   22  C   UNK N   1      13.649  12.512  18.707  0.00  0.00     0.302 C 
HETATM   23  C   UNK N   1      15.911  11.686  18.949  0.00  0.00     0.310 C 
HETATM   24  C   UNK N   1      12.732  13.417  17.875  0.00  0.00     0.303 C 
ENDBRANCH  17  18
ENDBRANCH   1  17
TORSDOF 3
ENDMDL
MODEL 5
REMARK VINA RESULT:      -6.3      2.229      9.054
REMARK  3 active torsions:
REMARK  status: ('A' for Active; 'I' for Inactive)
REMARK    1  A    between atoms: N_2  and  C_13 
REMARK       I    between atoms: N_4  and  C_17 
REMARK    2  A    between atoms: C_13  and  C_15 
REMARK    3  A    between atoms: C_17  and  C_19 
ROOT
HETATM    1  C   UNK N   1      14.317  13.428  17.648  0.00  0.00    -0.030 A 
HETATM    2  C   UNK N   1      12.499  15.472  17.022  0.00  0.00     0.032 A 
HETATM    3  C   UNK N   1      14.771  14.744  17.452  0.00  0.00     0.010 A 
HETATM    4  C   UNK N   1      12.949  13.144  17.534  0.00  0.00     0.010 A 
HETATM    5  C   UNK N   1      13.862  15.764  17.151  0.00  0.00     0.017 A 
HETATM    6  C   UNK N   1      12.045  14.160  17.213  0.00  0.00     0.017 A 
ENDROOT
BRANCH   2   7
HETATM    7  C   UNK N   1      11.534  16.536  16.680  0.00  0.00     0.253 C 
HETATM    8  O   UNK N   1      11.315  16.753  15.497  0.00  0.00    -0.267 OA
HETATM    9  N   UNK N   1      10.950  17.315  17.652  0.00  0.00    -0.344 N 
HETATM   10  C   UNK N   1      10.080  18.434  17.303  0.00  0.00     0.161 C 
HETATM   11  C   UNK N   1      11.167  17.085  19.075  0.00  0.00     0.156 C 
HETATM   12  C   UNK N   1       8.738  18.285  18.043  0.00  0.00     0.234 C 
HETATM   13  N   UNK N   1       8.985  18.140  19.491  0.00  0.00     0.090 N 
HETATM   14  C   UNK N   1       7.858  19.511  17.783  0.00  0.00     0.044 C 
HETATM   15  C   UNK N   1       9.806  16.951  19.766  0.00  0.00     0.290 C 
HETATM   16  H   UNK N   1       8.072  18.034  19.992  0.00  0.00     0.316 HD
ENDBRANCH   2   7
BRANCH   1  17
HETATM   17  C   UNK N   1      15.298  12.333  17.977  0.00  0.00     0.311 C 
BRANCH  17  18
HETATM   18  N   UNK N   1      16.665  12.728  17.576  0.00  0.00     0.096 N 
HETATM   19  C   UNK N   1      17.096  11.932  16.402  0.00  0.00     0.303 C 
HETATM   20  C   UNK N   1      18.515  12.314  15.980  0.00  0.00     0.302 C 
HETATM   21  N   UNK N   1      19.445  12.105  17.105  0.00  0.00     0.087 N 
HETATM   22  C   UNK N   1      19.027  12.916  18.263  0.00  0.00     0.302 C 
HETATM   23  C   UNK N   1      20.817  12.447  16.704  0.00  0.00     0.310 C 
HETATM   24  C   UNK N   1      17.609  12.522  18.692  0.00  0.00     0.303 C 
ENDBRANCH  17  18
ENDBRANCH   1  17
TORSDOF 3
ENDMDL
MODEL 6
REMARK VINA RESULT:      -6.3      2.015      8.814
REMARK  3 active torsions:
REMARK  status: ('A' for Active; 'I' for Inactive)
REMARK    1  A    between atoms: N_2  and  C_13 
REMARK       I    between atoms: N_4  and  C_17 
REMARK    2  A    between atoms: C_13  and  C_15 
REMARK    3  A    between atoms: C_17  and  C_19 
ROOT
HETATM    1  C   UNK N   1      12.650  15.899  17.318  0.00  0.00    -0.030 A 
HETATM    2  C   UNK N   1      10.169  17.105  17.832  0.00  0.00     0.032 A 
HETATM    3  C   UNK N   1      12.237  16.136  18.641  0.00  0.00     0.010 A 
HETATM    4  C   UNK N   1      11.811  16.265  16.256  0.00  0.00     0.010 A 
HETATM    5  C   UNK N   1      10.996  16.727  18.896  0.00  0.00     0.017 A 
HETATM    6  C   UNK N   1      10.580  16.875  16.512  0.00  0.00     0.017 A 
ENDROOT
BRANCH   2   7
HETATM    7  C   UNK N   1       8.866  17.753  18.088  0.00  0.00     0.253 C 
HETATM    8  O   UNK N   1       7.952  17.058  18.506  0.00  0.00    -0.267 OA
HETATM    9  N   UNK N   1       8.656  19.081  17.796  0.00  0.00    -0.344 N 
HETATM   10  C   UNK N   1       7.338  19.690  17.950  0.00  0.00     0.161 C 
HETATM   11  C   UNK N   1       9.719  19.953  17.309  0.00  0.00     0.156 C 
HETATM   12  C   UNK N   1       7.459  20.947  18.831  0.00  0.00     0.234 C 
HETATM   13  N   UNK N   1       8.480  21.850  18.267  0.00  0.00     0.090 N 
HETATM   14  C   UNK N   1       6.109  21.665  18.905  0.00  0.00     0.044 C 
HETATM   15  C   UNK N   1       9.793  21.189  18.213  0.00  0.00     0.290 C 
HETATM   16  H   UNK N   1       8.565  22.702  18.869  0.00  0.00     0.316 HD
ENDBRANCH   2   7
BRANCH   1  17
HETATM   17  C   UNK N   1      13.986  15.257  17.048  0.00  0.00     0.311 C 
BRANCH  17  18
HETATM   18  N   UNK N   1      14.229  14.153  18.000  0.00  0.00     0.096 N 
HETATM   19  C   UNK N   1      15.565  13.559  17.753  0.00  0.00     0.303 C 
HETATM   20  C   UNK N   1      15.830  12.402  18.717  0.00  0.00     0.302 C 
HETATM   21  N   UNK N   1      14.782  11.376  18.568  0.00  0.00     0.087 N 
HETATM   22  C   UNK N   1      13.458  11.964  18.837  0.00  0.00     0.302 C 
HETATM   23  C   UNK N   1      15.040  10.248  19.475  0.00  0.00     0.310 C 
HETATM   24  C   UNK N   1      13.189  13.114  17.860  0.00  0.00     0.303 C 
ENDBRANCH  17  18
ENDBRANCH   1  17
TORSDOF 3
ENDMDL
MODEL 7
REMARK VINA RESULT:      -6.0      2.230      8.459
REMARK  3 active torsions:
REMARK  status: ('A' for Active; 'I' for Inactive)
REMARK    1  A    between atoms: N_2  and  C_13 
REMARK       I    between atoms: N_4  and  C_17 
REMARK    2  A    between atoms: C_13  and  C_15 
REMARK    3  A    between atoms: C_17  and  C_19 
ROOT
HETATM    1  C   UNK N   1      11.546  16.551  17.305  0.00  0.00    -0.030 A 
HETATM    2  C   UNK N   1       9.659  18.320  18.396  0.00  0.00     0.032 A 
HETATM    3  C   UNK N   1      11.154  16.429  18.649  0.00  0.00     0.010 A 
HETATM    4  C   UNK N   1      10.983  17.561  16.510  0.00  0.00     0.010 A 
HETATM    5  C   UNK N   1      10.206  17.304  19.189  0.00  0.00     0.017 A 
HETATM    6  C   UNK N   1      10.052  18.447  17.056  0.00  0.00     0.017 A 
ENDROOT
BRANCH   2   7
HETATM    7  C   UNK N   1       8.676  19.265  18.962  0.00  0.00     0.253 C 
HETATM    8  O   UNK N   1       7.829  19.728  18.212  0.00  0.00    -0.267 OA
HETATM    9  N   UNK N   1       8.749  19.678  20.273  0.00  0.00    -0.344 N 
HETATM   10  C   UNK N   1       7.841  20.693  20.798  0.00  0.00     0.161 C 
HETATM   11  C   UNK N   1       9.732  19.143  21.208  0.00  0.00     0.156 C 
HETATM   12  C   UNK N   1       7.152  20.152  22.064  0.00  0.00     0.234 C 
HETATM   13  N   UNK N   1       8.174  19.698  23.027  0.00  0.00     0.090 N 
HETATM   14  C   UNK N   1       6.287  21.247  22.697  0.00  0.00     0.044 C 
HETATM   15  C   UNK N   1       8.998  18.626  22.450  0.00  0.00     0.290 C 
HETATM   16  H   UNK N   1       7.703  19.326  23.886  0.00  0.00     0.316 HD
ENDBRANCH   2   7
BRANCH   1  17
HETATM   17  C   UNK N   1      12.563  15.604  16.726  0.00  0.00     0.311 C 
BRANCH  17  18
HETATM   18  N   UNK N   1      13.223  14.835  17.802  0.00  0.00     0.096 N 
HETATM   19  C   UNK N   1      14.691  15.038  17.739  0.00  0.00     0.303 C 
HETATM   20  C   UNK N   1      15.395  14.237  18.836  0.00  0.00     0.302 C 
HETATM   21  N   UNK N   1      15.072  12.806  18.696  0.00  0.00     0.087 N 
HETATM   22  C   UNK N   1      13.615  12.605  18.783  0.00  0.00     0.302 C 
HETATM   23  C   UNK N   1      15.763  12.024  19.732  0.00  0.00     0.310 C 
HETATM   24  C   UNK N   1      12.912  13.398  17.674  0.00  0.00     0.303 C 
ENDBRANCH  17  18
ENDBRANCH   1  17
TORSDOF 3
ENDMDL
MODEL 8
REMARK VINA RESULT:      -5.7      1.930      8.804
REMARK  3 active torsions:
REMARK  status: ('A' for Active; 'I' for Inactive)
REMARK    1  A    between atoms: N_2  and  C_13 
REMARK       I    between atoms: N_4  and  C_17 
REMARK    2  A    between atoms: C_13  and  C_15 
REMARK    3  A    between atoms: C_17  and  C_19 
ROOT
HETATM    1  C   UNK N   1      12.631  14.992  18.413  0.00  0.00    -0.030 A 
HETATM    2  C   UNK N   1      11.196  17.124  17.286  0.00  0.00     0.032 A 
HETATM    3  C   UNK N   1      11.882  15.854  19.232  0.00  0.00     0.010 A 
HETATM    4  C   UNK N   1      12.652  15.202  17.026  0.00  0.00     0.010 A 
HETATM    5  C   UNK N   1      11.158  16.910  18.668  0.00  0.00     0.017 A 
HETATM    6  C   UNK N   1      11.946  16.269  16.467  0.00  0.00     0.017 A 
ENDROOT
BRANCH   2   7
HETATM    7  C   UNK N   1      10.456  18.251  16.681  0.00  0.00     0.253 C 
HETATM    8  O   UNK N   1      10.438  18.337  15.462  0.00  0.00    -0.267 OA
HETATM    9  N   UNK N   1       9.867  19.222  17.458  0.00  0.00    -0.344 N 
HETATM   10  C   UNK N   1       9.230  20.389  16.856  0.00  0.00     0.161 C 
HETATM   11  C   UNK N   1       9.850  19.155  18.915  0.00  0.00     0.156 C 
HETATM   12  C   UNK N   1       7.792  20.517  17.392  0.00  0.00     0.234 C 
HETATM   13  N   UNK N   1       7.814  20.533  18.867  0.00  0.00     0.090 N 
HETATM   14  C   UNK N   1       7.150  21.803  16.864  0.00  0.00     0.044 C 
HETATM   15  C   UNK N   1       8.402  19.293  19.397  0.00  0.00     0.290 C 
HETATM   16  H   UNK N   1       6.835  20.615  19.230  0.00  0.00     0.316 HD
ENDBRANCH   2   7
BRANCH   1  17
HETATM   17  C   UNK N   1      13.404  13.853  19.023  0.00  0.00     0.311 C 
BRANCH  17  18
HETATM   18  N   UNK N   1      14.760  13.779  18.439  0.00  0.00     0.096 N 
HETATM   19  C   UNK N   1      14.750  12.884  17.256  0.00  0.00     0.303 C 
HETATM   20  C   UNK N   1      16.149  12.780  16.645  0.00  0.00     0.302 C 
HETATM   21  N   UNK N   1      17.099  12.280  17.654  0.00  0.00     0.087 N 
HETATM   22  C   UNK N   1      17.124  13.183  18.818  0.00  0.00     0.302 C 
HETATM   23  C   UNK N   1      18.443  12.154  17.071  0.00  0.00     0.310 C 
HETATM   24  C   UNK N   1      15.724  13.275  19.436  0.00  0.00     0.303 C 
ENDBRANCH  17  18
ENDBRANCH   1  17
TORSDOF 3
ENDMDL
MODEL 9
REMARK VINA RESULT:      -5.7      1.242      1.723
REMARK  3 active torsions:
REMARK  status: ('A' for Active; 'I' for Inactive)
REMARK    1  A    between atoms: N_2  and  C_13 
REMARK       I    between atoms: N_4  and  C_17 
REMARK    2  A    between atoms: C_13  and  C_15 
REMARK    3  A    between atoms: C_17  and  C_19 
ROOT
HETATM    1  C   UNK N   1      10.168  16.931  18.504  0.00  0.00    -0.030 A 
HETATM    2  C   UNK N   1      12.569  15.653  17.814  0.00  0.00     0.032 A 
HETATM    3  C   UNK N   1      10.385  16.495  17.186  0.00  0.00     0.010 A 
HETATM    4  C   UNK N   1      11.158  16.718  19.475  0.00  0.00     0.010 A 
HETATM    5  C   UNK N   1      11.578  15.848  16.845  0.00  0.00     0.017 A 
HETATM    6  C   UNK N   1      12.357  16.091  19.129  0.00  0.00     0.017 A 
ENDROOT
BRANCH   2   7
HETATM    7  C   UNK N   1      13.843  14.994  17.461  0.00  0.00     0.253 C 
HETATM    8  O   UNK N   1      14.642  15.619  16.778  0.00  0.00    -0.267 OA
HETATM    9  N   UNK N   1      14.101  13.691  17.820  0.00  0.00    -0.344 N 
HETATM   10  C   UNK N   1      15.314  13.011  17.378  0.00  0.00     0.161 C 
HETATM   11  C   UNK N   1      13.187  12.911  18.647  0.00  0.00     0.156 C 
HETATM   12  C   UNK N   1      16.046  12.429  18.602  0.00  0.00     0.234 C 
HETATM   13  N   UNK N   1      15.120  11.575  19.371  0.00  0.00     0.090 N 
HETATM   14  C   UNK N   1      17.257  11.609  18.146  0.00  0.00     0.044 C 
HETATM   15  C   UNK N   1      13.963  12.350  19.843  0.00  0.00     0.290 C 
HETATM   16  H   UNK N   1      15.618  11.184  20.205  0.00  0.00     0.316 HD
ENDBRANCH   2   7
BRANCH   1  17
HETATM   17  C   UNK N   1       8.880  17.621  18.868  0.00  0.00     0.311 C 
BRANCH  17  18
HETATM   18  N   UNK N   1       8.826  18.966  18.257  0.00  0.00     0.096 N 
HETATM   19  C   UNK N   1       7.979  19.862  19.082  0.00  0.00     0.303 C 
HETATM   20  C   UNK N   1       7.897  21.255  18.458  0.00  0.00     0.302 C 
HETATM   21  N   UNK N   1       7.355  21.160  17.090  0.00  0.00     0.087 N 
HETATM   22  C   UNK N   1       8.212  20.289  16.267  0.00  0.00     0.302 C 
HETATM   23  C   UNK N   1       7.250  22.498  16.489  0.00  0.00     0.310 C 
HETATM   24  C   UNK N   1       8.282  18.889  16.887  0.00  0.00     0.303 C 
ENDBRANCH  17  18
ENDBRANCH   1  17
TORSDOF 3
ENDMDL
