MODEL 1
REMARK VINA RESULT:      -9.9      0.000      0.000
REMARK  5 active torsions:
REMARK  status: ('A' for Active; 'I' for Inactive)
REMARK    1  A    between atoms: N_3  and  C_11 
REMARK       I    between atoms: N_3  and  C_18 
REMARK    2  A    between atoms: N_4  and  C_13 
REMARK       I    between atoms: N_4  and  C_19 
REMARK    3  A    between atoms: C_19  and  C_20 
REMARK    4  A    between atoms: C_21  and  C_22 
REMARK    5  A    between atoms: C_26  and  C_33 
ROOT
HETATM    1  C   UNK N   1       9.215  18.346  19.928  0.00  0.00     0.057 A 
HETATM    2  C   UNK N   1       9.059  19.006  18.680  0.00  0.00    -0.035 A 
HETATM    3  C   UNK N   1      10.968  16.929  18.918  0.00  0.00     0.037 A 
HETATM    4  C   UNK N   1      10.172  17.300  20.032  0.00  0.00     0.060 A 
HETATM    5  C   UNK N   1       9.859  18.641  17.595  0.00  0.00     0.011 A 
HETATM    6  C   UNK N   1      10.791  17.622  17.712  0.00  0.00     0.030 A 
HETATM    7  C   UNK N   1       8.053  20.113  18.492  0.00  0.00     0.050 C 
ENDROOT
BRANCH   1   8
HETATM    8  N   UNK N   1       8.374  18.726  21.033  0.00  0.00    -0.191 N 
HETATM    9  C   UNK N   1       8.736  19.556  22.134  0.00  0.00     0.683 A 
HETATM   10  N   UNK N   1       9.888  20.280  22.134  0.00  0.00    -0.191 N 
HETATM   11  N   UNK N   1       7.871  19.677  23.176  0.00  0.00    -0.202 N 
HETATM   12  C   UNK N   1      10.227  21.093  23.175  0.00  0.00     0.062 A 
ATOM     13  HN  UNK N   1      10.517  20.214  21.333  1.00  0.00     0.184 HD
HETATM   14  C   UNK N   1       9.343  21.195  24.265  0.00  0.00     0.048 A 
HETATM   15  C   UNK N   1       8.153  20.475  24.234  0.00  0.00     0.108 A 
ATOM     16  HN  UNK N   1       6.993  19.158  23.161  1.00  0.00     0.183 HD
HETATM   17  H   UNK N   1       7.396  18.404  21.029  0.00  0.00     0.184 HD
BRANCH  12  18
HETATM   18  C   UNK N   1      11.511  21.853  23.121  0.00  0.00     0.007 A 
HETATM   19  C   UNK N   1      11.509  23.207  22.738  0.00  0.00     0.016 A 
HETATM   20  C   UNK N   1      12.704  23.926  22.692  0.00  0.00     0.018 A 
HETATM   21  C   UNK N   1      13.900  23.291  23.014  0.00  0.00     0.087 A 
HETATM   22  N   UNK N   1      13.899  21.981  23.376  0.00  0.00    -0.374 N 
HETATM   23  C   UNK N   1      12.751  21.256  23.442  0.00  0.00     0.101 A 
ATOM     24  HN  UNK N   1      14.785  21.529  23.605  1.00  0.00     0.164 HD
ENDBRANCH  12  18
ENDBRANCH   1   8
BRANCH   3  25
HETATM   25  N   UNK N   1      11.937  15.862  18.922  0.00  0.00    -0.323 N 
HETATM   26  C   UNK N   1      12.807  15.505  17.923  0.00  0.00     0.256 C 
HETATM   27  O   UNK N   1      12.791  16.084  16.849  0.00  0.00    -0.267 OA
HETATM   28  H   UNK N   1      11.932  15.283  19.770  0.00  0.00     0.169 HD
BRANCH  26  29
HETATM   29  C   UNK N   1      13.762  14.354  18.103  0.00  0.00     0.032 A 
HETATM   30  C   UNK N   1      13.668  13.459  19.195  0.00  0.00     0.018 A 
HETATM   31  C   UNK N   1      14.555  12.389  19.320  0.00  0.00     0.015 A 
HETATM   32  C   UNK N   1      15.554  12.177  18.365  0.00  0.00     0.002 A 
HETATM   33  C   UNK N   1      15.669  13.064  17.283  0.00  0.00     0.015 A 
HETATM   34  C   UNK N   1      14.787  14.145  17.157  0.00  0.00     0.018 A 
BRANCH  32  35
HETATM   35  C   UNK N   1      16.466  11.023  18.512  0.00  0.00     0.269 C 
HETATM   36  O   UNK N   1      16.300  10.202  19.401  0.00  0.00    -0.301 OA
ENDBRANCH  32  35
ENDBRANCH  26  29
ENDBRANCH   3  25
TORSDOF 5
ENDMDL
MODEL 2
REMARK VINA RESULT:      -9.3      2.298      2.828
REMARK  5 active torsions:
REMARK  status: ('A' for Active; 'I' for Inactive)
REMARK    1  A    between atoms: N_3  and  C_11 
REMARK       I    between atoms: N_3  and  C_18 
REMARK    2  A    between atoms: N_4  and  C_13 
REMARK       I    between atoms: N_4  and  C_19 
REMARK    3  A    between atoms: C_19  and  C_20 
REMARK    4  A    between atoms: C_21  and  C_22 
REMARK    5  A    between atoms: C_26  and  C_33 
ROOT
HETATM    1  C   UNK N   1       9.471  18.545  17.375  0.00  0.00     0.057 A 
HETATM    2  C   UNK N   1       9.564  19.111  16.076  0.00  0.00    -0.035 A 
HETATM    3  C   UNK N   1      11.209  16.906  16.746  0.00  0.00     0.037 A 
HETATM    4  C   UNK N   1      10.298  17.434  17.696  0.00  0.00     0.060 A 
HETATM    5  C   UNK N   1      10.475  18.591  15.153  0.00  0.00     0.011 A 
HETATM    6  C   UNK N   1      11.278  17.510  15.482  0.00  0.00     0.030 A 
HETATM    7  C   UNK N   1       8.708  20.280  15.660  0.00  0.00     0.050 C 
ENDROOT
BRANCH   1   8
HETATM    8  N   UNK N   1       8.518  19.085  18.309  0.00  0.00    -0.191 N 
HETATM    9  C   UNK N   1       8.650  19.135  19.728  0.00  0.00     0.683 A 
HETATM   10  N   UNK N   1       9.833  18.871  20.346  0.00  0.00    -0.191 N 
HETATM   11  N   UNK N   1       7.581  19.527  20.472  0.00  0.00    -0.202 N 
HETATM   12  C   UNK N   1       9.968  18.941  21.701  0.00  0.00     0.062 A 
ATOM     13  HN  UNK N   1      10.642  18.613  19.780  1.00  0.00     0.184 HD
HETATM   14  C   UNK N   1       8.854  19.319  22.470  0.00  0.00     0.048 A 
HETATM   15  C   UNK N   1       7.660  19.619  21.821  0.00  0.00     0.108 A 
ATOM     16  HN  UNK N   1       6.703  19.754  20.005  1.00  0.00     0.183 HD
HETATM   17  H   UNK N   1       7.662  19.514  17.933  0.00  0.00     0.184 HD
BRANCH  12  18
HETATM   18  C   UNK N   1      11.291  18.627  22.320  0.00  0.00     0.007 A 
HETATM   19  C   UNK N   1      11.514  18.913  23.679  0.00  0.00     0.016 A 
HETATM   20  C   UNK N   1      12.744  18.616  24.267  0.00  0.00     0.018 A 
HETATM   21  C   UNK N   1      13.754  18.046  23.496  0.00  0.00     0.087 A 
HETATM   22  N   UNK N   1      13.537  17.778  22.181  0.00  0.00    -0.374 N 
HETATM   23  C   UNK N   1      12.346  18.045  21.583  0.00  0.00     0.101 A 
ATOM     24  HN  UNK N   1      14.288  17.365  21.629  1.00  0.00     0.164 HD
ENDBRANCH  12  18
ENDBRANCH   1   8
BRANCH   3  25
HETATM   25  N   UNK N   1      12.059  15.764  16.971  0.00  0.00    -0.323 N 
HETATM   26  C   UNK N   1      12.586  15.323  18.159  0.00  0.00     0.256 C 
HETATM   27  O   UNK N   1      12.397  15.945  19.192  0.00  0.00    -0.267 OA
HETATM   28  H   UNK N   1      12.325  15.254  16.121  0.00  0.00     0.169 HD
BRANCH  26  29
HETATM   29  C   UNK N   1      13.459  14.096  18.210  0.00  0.00     0.032 A 
HETATM   30  C   UNK N   1      14.474  13.852  17.255  0.00  0.00     0.018 A 
HETATM   31  C   UNK N   1      15.281  12.716  17.344  0.00  0.00     0.015 A 
HETATM   32  C   UNK N   1      15.104  11.798  18.383  0.00  0.00     0.002 A 
HETATM   33  C   UNK N   1      14.092  12.019  19.331  0.00  0.00     0.015 A 
HETATM   34  C   UNK N   1      13.274  13.152  19.242  0.00  0.00     0.018 A 
BRANCH  32  35
HETATM   35  C   UNK N   1      15.987  10.616  18.464  0.00  0.00     0.269 C 
HETATM   36  O   UNK N   1      16.549  10.322  19.508  0.00  0.00    -0.301 OA
ENDBRANCH  32  35
ENDBRANCH  26  29
ENDBRANCH   3  25
TORSDOF 5
ENDMDL
MODEL 3
REMARK VINA RESULT:      -8.0      4.610     11.082
REMARK  5 active torsions:
REMARK  status: ('A' for Active; 'I' for Inactive)
REMARK    1  A    between atoms: N_3  and  C_11 
REMARK       I    between atoms: N_3  and  C_18 
REMARK    2  A    between atoms: N_4  and  C_13 
REMARK       I    between atoms: N_4  and  C_19 
REMARK    3  A    between atoms: C_19  and  C_20 
REMARK    4  A    between atoms: C_21  and  C_22 
REMARK    5  A    between atoms: C_26  and  C_33 
ROOT
HETATM    1  C   UNK N   1      15.790  13.284  19.514  0.00  0.00     0.057 A 
HETATM    2  C   UNK N   1      15.344  11.941  19.389  0.00  0.00    -0.035 A 
HETATM    3  C   UNK N   1      13.486  14.054  19.067  0.00  0.00     0.037 A 
HETATM    4  C   UNK N   1      14.849  14.335  19.343  0.00  0.00     0.060 A 
HETATM    5  C   UNK N   1      13.997  11.677  19.131  0.00  0.00     0.011 A 
HETATM    6  C   UNK N   1      13.089  12.712  18.971  0.00  0.00     0.030 A 
HETATM    7  C   UNK N   1      16.289  10.777  19.542  0.00  0.00     0.050 C 
ENDROOT
BRANCH   1   8
HETATM    8  N   UNK N   1      17.184  13.539  19.768  0.00  0.00    -0.191 N 
HETATM    9  C   UNK N   1      18.284  13.164  18.941  0.00  0.00     0.683 A 
HETATM   10  N   UNK N   1      18.100  12.706  17.672  0.00  0.00    -0.191 N 
HETATM   11  N   UNK N   1      19.547  13.335  19.413  0.00  0.00    -0.202 N 
HETATM   12  C   UNK N   1      19.151  12.368  16.871  0.00  0.00     0.062 A 
ATOM     13  HN  UNK N   1      17.151  12.614  17.310  1.00  0.00     0.184 HD
HETATM   14  C   UNK N   1      20.456  12.521  17.372  0.00  0.00     0.048 A 
HETATM   15  C   UNK N   1      20.628  13.021  18.659  0.00  0.00     0.108 A 
ATOM     16  HN  UNK N   1      19.684  13.707  20.353  1.00  0.00     0.183 HD
HETATM   17  H   UNK N   1      17.432  14.076  20.610  0.00  0.00     0.184 HD
BRANCH  12  18
HETATM   18  C   UNK N   1      18.883  11.861  15.492  0.00  0.00     0.007 A 
HETATM   19  C   UNK N   1      19.957  11.571  14.631  0.00  0.00     0.016 A 
HETATM   20  C   UNK N   1      19.716  11.089  13.344  0.00  0.00     0.018 A 
HETATM   21  C   UNK N   1      18.404  10.911  12.913  0.00  0.00     0.087 A 
HETATM   22  N   UNK N   1      17.369  11.199  13.744  0.00  0.00    -0.374 N 
HETATM   23  C   UNK N   1      17.572  11.659  15.008  0.00  0.00     0.101 A 
ATOM     24  HN  UNK N   1      16.414  11.067  13.412  1.00  0.00     0.164 HD
ENDBRANCH  12  18
ENDBRANCH   1   8
BRANCH   3  25
HETATM   25  N   UNK N   1      12.471  15.053  18.846  0.00  0.00    -0.323 N 
HETATM   26  C   UNK N   1      12.338  15.901  17.774  0.00  0.00     0.256 C 
HETATM   27  O   UNK N   1      13.166  15.905  16.878  0.00  0.00    -0.267 OA
HETATM   28  H   UNK N   1      11.797  15.156  19.612  0.00  0.00     0.169 HD
BRANCH  26  29
HETATM   29  C   UNK N   1      11.203  16.889  17.706  0.00  0.00     0.032 A 
HETATM   30  C   UNK N   1      10.381  17.172  18.823  0.00  0.00     0.018 A 
HETATM   31  C   UNK N   1       9.351  18.111  18.732  0.00  0.00     0.015 A 
HETATM   32  C   UNK N   1       9.113  18.792  17.535  0.00  0.00     0.002 A 
HETATM   33  C   UNK N   1       9.911  18.511  16.414  0.00  0.00     0.015 A 
HETATM   34  C   UNK N   1      10.940  17.565  16.497  0.00  0.00     0.018 A 
BRANCH  32  35
HETATM   35  C   UNK N   1       8.029  19.795  17.475  0.00  0.00     0.269 C 
HETATM   36  O   UNK N   1       7.814  20.427  16.452  0.00  0.00    -0.301 OA
ENDBRANCH  32  35
ENDBRANCH  26  29
ENDBRANCH   3  25
TORSDOF 5
ENDMDL
MODEL 4
REMARK VINA RESULT:      -7.0      1.756      2.185
REMARK  5 active torsions:
REMARK  status: ('A' for Active; 'I' for Inactive)
REMARK    1  A    between atoms: N_3  and  C_11 
REMARK       I    between atoms: N_3  and  C_18 
REMARK    2  A    between atoms: N_4  and  C_13 
REMARK       I    between atoms: N_4  and  C_19 
REMARK    3  A    between atoms: C_19  and  C_20 
REMARK    4  A    between atoms: C_21  and  C_22 
REMARK    5  A    between atoms: C_26  and  C_33 
ROOT
HETATM    1  C   UNK N   1       8.399  19.760  18.263  0.00  0.00     0.057 A 
HETATM    2  C   UNK N   1       8.493  20.633  17.146  0.00  0.00    -0.035 A 
HETATM    3  C   UNK N   1      10.316  18.479  17.376  0.00  0.00     0.037 A 
HETATM    4  C   UNK N   1       9.316  18.679  18.362  0.00  0.00     0.060 A 
HETATM    5  C   UNK N   1       9.490  20.433  16.188  0.00  0.00     0.011 A 
HETATM    6  C   UNK N   1      10.380  19.377  16.301  0.00  0.00     0.030 A 
HETATM    7  C   UNK N   1       7.544  21.790  16.966  0.00  0.00     0.050 C 
ENDROOT
BRANCH   1   8
HETATM    8  N   UNK N   1       7.357  19.972  19.233  0.00  0.00    -0.191 N 
HETATM    9  C   UNK N   1       7.508  20.526  20.538  0.00  0.00     0.683 A 
HETATM   10  N   UNK N   1       8.660  21.138  20.926  0.00  0.00    -0.191 N 
HETATM   11  N   UNK N   1       6.447  20.500  21.388  0.00  0.00    -0.202 N 
HETATM   12  C   UNK N   1       8.799  21.690  22.166  0.00  0.00     0.062 A 
ATOM     13  HN  UNK N   1       9.441  21.187  20.271  1.00  0.00     0.184 HD
HETATM   14  C   UNK N   1       7.709  21.637  23.052  0.00  0.00     0.048 A 
HETATM   15  C   UNK N   1       6.527  21.037  22.629  0.00  0.00     0.108 A 
ATOM     16  HN  UNK N   1       5.574  20.067  21.085  1.00  0.00     0.183 HD
HETATM   17  H   UNK N   1       6.391  19.738  18.965  0.00  0.00     0.184 HD
BRANCH  12  18
HETATM   18  C   UNK N   1      10.093  22.338  22.535  0.00  0.00     0.007 A 
HETATM   19  C   UNK N   1      10.488  22.395  23.884  0.00  0.00     0.016 A 
HETATM   20  C   UNK N   1      11.699  22.991  24.237  0.00  0.00     0.018 A 
HETATM   21  C   UNK N   1      12.508  23.542  23.245  0.00  0.00     0.087 A 
HETATM   22  N   UNK N   1      12.119  23.491  21.944  0.00  0.00    -0.374 N 
HETATM   23  C   UNK N   1      10.951  22.906  21.568  0.00  0.00     0.101 A 
ATOM     24  HN  UNK N   1      12.721  23.903  21.231  1.00  0.00     0.164 HD
ENDBRANCH  12  18
ENDBRANCH   1   8
BRANCH   3  25
HETATM   25  N   UNK N   1      11.264  17.393  17.378  0.00  0.00    -0.323 N 
HETATM   26  C   UNK N   1      11.718  16.669  18.451  0.00  0.00     0.256 C 
HETATM   27  O   UNK N   1      11.360  16.944  19.584  0.00  0.00    -0.267 OA
HETATM   28  H   UNK N   1      11.668  17.176  16.460  0.00  0.00     0.169 HD
BRANCH  26  29
HETATM   29  C   UNK N   1      12.716  15.554  18.266  0.00  0.00     0.032 A 
HETATM   30  C   UNK N   1      12.877  14.520  19.217  0.00  0.00     0.018 A 
HETATM   31  C   UNK N   1      13.795  13.490  19.004  0.00  0.00     0.015 A 
HETATM   32  C   UNK N   1      14.573  13.459  17.843  0.00  0.00     0.002 A 
HETATM   33  C   UNK N   1      14.435  14.486  16.896  0.00  0.00     0.015 A 
HETATM   34  C   UNK N   1      13.521  15.527  17.108  0.00  0.00     0.018 A 
BRANCH  32  35
HETATM   35  C   UNK N   1      15.521  12.345  17.635  0.00  0.00     0.269 C 
HETATM   36  O   UNK N   1      16.681  12.558  17.317  0.00  0.00    -0.301 OA
ENDBRANCH  32  35
ENDBRANCH  26  29
ENDBRANCH   3  25
TORSDOF 5
ENDMDL
