MODEL 1
REMARK VINA RESULT:     -10.5      0.000      0.000
REMARK  10 active torsions:
REMARK  status: ('A' for Active; 'I' for Inactive)
REMARK    1  A    between atoms: O_1  and  C_24 
REMARK    2  A    between atoms: N_4  and  C_18 
REMARK    3  A    between atoms: N_5  and  C_19 
REMARK       I    between atoms: N_6  and  C_28 
REMARK    4  A    between atoms: N_6  and  C_29 
REMARK    5  A    between atoms: N_7  and  C_31 
REMARK       I    between atoms: N_7  and  C_36 
REMARK    6  A    between atoms: C_18  and  C_20 
REMARK    7  A    between atoms: C_19  and  C_21 
REMARK    8  A    between atoms: C_20  and  C_24 
REMARK    9  A    between atoms: C_27  and  C_28 
REMARK   10  A    between atoms: C_37  and  C_38 
ROOT
HETATM    1  C   UNK N   1      10.972  16.969  18.900  0.00  0.00     0.037 A 
HETATM    2  C   UNK N   1      10.169  17.331  20.011  0.00  0.00     0.060 A 
HETATM    3  C   UNK N   1       9.184  18.349  19.898  0.00  0.00     0.057 A 
HETATM    4  C   UNK N   1      10.773  17.643  17.686  0.00  0.00     0.030 A 
HETATM    5  C   UNK N   1       9.006  18.990  18.643  0.00  0.00    -0.035 A 
HETATM    6  C   UNK N   1       9.811  18.633  17.559  0.00  0.00     0.011 A 
HETATM    7  C   UNK N   1       7.970  20.067  18.447  0.00  0.00     0.050 C 
ENDROOT
BRANCH   1   8
HETATM    8  N   UNK N   1      11.974  15.933  18.915  0.00  0.00    -0.323 N 
HETATM    9  C   UNK N   1      12.854  15.597  17.917  0.00  0.00     0.256 C 
HETATM   10  O   UNK N   1      12.826  16.171  16.841  0.00  0.00    -0.267 OA
HETATM   11  H   UNK N   1      11.984  15.360  19.764  0.00  0.00     0.169 HD
BRANCH   9  12
HETATM   12  C   UNK N   1      13.836  14.470  18.102  0.00  0.00     0.032 A 
HETATM   13  C   UNK N   1      14.265  14.044  19.381  0.00  0.00     0.017 A 
HETATM   14  C   UNK N   1      15.154  12.977  19.517  0.00  0.00     0.010 A 
HETATM   15  C   UNK N   1      15.632  12.305  18.389  0.00  0.00    -0.030 A 
HETATM   16  C   UNK N   1      15.228  12.726  17.113  0.00  0.00     0.010 A 
HETATM   17  C   UNK N   1      14.347  13.803  16.970  0.00  0.00     0.017 A 
BRANCH  15  18
HETATM   18  C   UNK N   1      16.565  11.131  18.538  0.00  0.00     0.311 C 
BRANCH  18  19
HETATM   19  N   UNK N   1      17.857  11.416  17.880  0.00  0.00     0.096 N 
HETATM   20  C   UNK N   1      18.471  12.648  18.422  0.00  0.00     0.303 C 
HETATM   21  C   UNK N   1      19.819  12.908  17.746  0.00  0.00     0.302 C 
HETATM   22  N   UNK N   1      19.640  13.033  16.282  0.00  0.00     0.092 N 
HETATM   23  C   UNK N   1      19.031  11.796  15.754  0.00  0.00     0.302 C 
HETATM   24  C   UNK N   1      17.677  11.549  16.424  0.00  0.00     0.303 C 
BRANCH  22  25
HETATM   25  C   UNK N   1      20.922  13.304  15.595  0.00  0.00     0.283 C 
BRANCH  25  26
HETATM   26  C   UNK N   1      21.536  12.018  15.012  0.00  0.00     0.140 C 
BRANCH  26  27
HETATM   27  C   UNK N   1      22.496  12.279  13.880  0.00  0.00     0.141 C 
HETATM   28  O   UNK N   1      23.274  13.222  13.919  0.00  0.00    -0.650 OA
BRANCH  27  29
HETATM   29  O   UNK N   1      22.489  11.460  12.808  0.00  0.00    -0.776 OA
HETATM   30  H   UNK N   1      23.313  11.181  12.384  0.00  0.00     0.167 HD
ENDBRANCH  27  29
ENDBRANCH  26  27
ENDBRANCH  25  26
ENDBRANCH  22  25
ENDBRANCH  18  19
ENDBRANCH  15  18
ENDBRANCH   9  12
ENDBRANCH   1   8
BRANCH   3  31
HETATM   31  N   UNK N   1       8.340  18.720  21.004  0.00  0.00    -0.191 N 
HETATM   32  C   UNK N   1       8.700  19.537  22.116  0.00  0.00     0.683 A 
HETATM   33  N   UNK N   1       9.858  20.253  22.131  0.00  0.00    -0.191 N 
HETATM   34  N   UNK N   1       7.830  19.654  23.153  0.00  0.00    -0.202 N 
HETATM   35  C   UNK N   1      10.195  21.051  23.185  0.00  0.00     0.062 A 
ATOM     36  HN  UNK N   1      10.491  20.191  21.334  1.00  0.00     0.184 HD
HETATM   37  C   UNK N   1       9.304  21.149  24.268  0.00  0.00     0.048 A 
HETATM   38  C   UNK N   1       8.111  20.439  24.222  0.00  0.00     0.108 A 
ATOM     39  HN  UNK N   1       6.948  19.141  23.126  1.00  0.00     0.183 HD
HETATM   40  H   UNK N   1       7.360  18.403  20.991  0.00  0.00     0.184 HD
BRANCH  35  41
HETATM   41  C   UNK N   1      11.487  21.801  23.150  0.00  0.00     0.007 A 
HETATM   42  C   UNK N   1      11.503  23.151  22.752  0.00  0.00     0.016 A 
HETATM   43  C   UNK N   1      12.704  23.861  22.723  0.00  0.00     0.018 A 
HETATM   44  C   UNK N   1      13.889  23.219  23.079  0.00  0.00     0.087 A 
HETATM   45  N   UNK N   1      13.869  21.914  23.455  0.00  0.00    -0.374 N 
HETATM   46  C   UNK N   1      12.713  21.199  23.504  0.00  0.00     0.101 A 
ATOM     47  HN  UNK N   1      14.746  21.458  23.708  1.00  0.00     0.164 HD
ENDBRANCH  35  41
ENDBRANCH   3  31
TORSDOF 10
ENDMDL
