MODEL 1
REMARK VINA RESULT:      -8.6      0.000      0.000
REMARK  7 active torsions:
REMARK  status: ('A' for Active; 'I' for Inactive)
REMARK    1  A    between atoms: O_2  and  C_33 
REMARK       I    between atoms: N_4  and  C_13 
REMARK    2  A    between atoms: N_5  and  C_14 
REMARK    3  A    between atoms: N_6  and  C_19 
REMARK    4  A    between atoms: C_13  and  C_15 
REMARK    5  A    between atoms: C_14  and  C_16 
REMARK    6  A    between atoms: C_19  and  C_24 
REMARK    7  A    between atoms: C_32  and  C_33 
ROOT
HETATM    1  O   UNK N   1      12.214  16.672  16.352  0.00  0.00    -0.259 OA
HETATM    2  N   UNK N   1      12.911  15.004  17.729  0.00  0.00    -0.001 N 
HETATM    3  N   UNK N   1      15.299  13.710  18.850  0.00  0.00     0.096 N 
HETATM    4  C   UNK N   1      13.090  14.778  19.183  0.00  0.00     0.277 C 
HETATM    5  C   UNK N   1      14.228  15.065  17.054  0.00  0.00     0.277 C 
HETATM    6  C   UNK N   1      13.984  13.561  19.500  0.00  0.00     0.301 C 
HETATM    7  C   UNK N   1      15.134  13.860  17.383  0.00  0.00     0.301 C 
HETATM    8  C   UNK N   1      12.140  13.880  17.151  0.00  0.00     0.283 C 
HETATM    9  C   UNK N   1      12.174  16.157  17.464  0.00  0.00     0.351 C 
ENDROOT
BRANCH   9  10
HETATM   10  C   UNK N   1      11.179  16.696  18.427  0.00  0.00     0.040 A 
HETATM   11  C   UNK N   1      11.609  17.278  19.628  0.00  0.00     0.017 A 
HETATM   12  C   UNK N   1      10.676  17.803  20.528  0.00  0.00     0.010 A 
HETATM   13  C   UNK N   1       9.304  17.740  20.238  0.00  0.00    -0.030 A 
HETATM   14  C   UNK N   1       8.877  17.145  19.041  0.00  0.00     0.010 A 
HETATM   15  C   UNK N   1       9.810  16.628  18.140  0.00  0.00     0.017 A 
BRANCH  13  16
HETATM   16  C   UNK N   1       8.288  18.289  21.205  0.00  0.00     0.311 C 
BRANCH  16  17
HETATM   17  N   UNK N   1       8.558  19.711  21.504  0.00  0.00     0.096 N 
HETATM   18  C   UNK N   1       8.150  20.558  20.367  0.00  0.00     0.303 C 
HETATM   19  C   UNK N   1       8.472  22.025  20.663  0.00  0.00     0.302 C 
HETATM   20  N   UNK N   1       7.763  22.454  21.882  0.00  0.00     0.087 N 
HETATM   21  C   UNK N   1       8.170  21.618  23.026  0.00  0.00     0.302 C 
HETATM   22  C   UNK N   1       8.032  23.873  22.157  0.00  0.00     0.310 C 
HETATM   23  C   UNK N   1       7.858  20.144  22.733  0.00  0.00     0.303 C 
ENDBRANCH  16  17
ENDBRANCH  13  16
ENDBRANCH   9  10
BRANCH   3  24
HETATM   24  C   UNK N   1      16.152  12.540  19.147  0.00  0.00     0.311 C 
BRANCH  24  25
HETATM   25  C   UNK N   1      17.291  12.451  18.167  0.00  0.00    -0.030 A 
HETATM   26  C   UNK N   1      18.564  12.928  18.519  0.00  0.00     0.010 A 
HETATM   27  C   UNK N   1      19.628  12.831  17.615  0.00  0.00     0.019 A 
HETATM   28  C   UNK N   1      19.426  12.275  16.339  0.00  0.00     0.037 A 
HETATM   29  C   UNK N   1      18.148  11.810  15.987  0.00  0.00     0.019 A 
HETATM   30  C   UNK N   1      17.092  11.888  16.899  0.00  0.00     0.010 A 
BRANCH  28  31
HETATM   31  C   UNK N   1      20.547  12.177  15.369  0.00  0.00     0.176 C 
HETATM   32  O   UNK N   1      21.675  12.519  15.694  0.00  0.00    -0.646 OA
BRANCH  31  33
HETATM   33  O   UNK N   1      20.323  11.711  14.121  0.00  0.00    -0.773 OA
HETATM   34  H   UNK N   1      20.832  12.036  13.365  0.00  0.00     0.167 HD
ENDBRANCH  31  33
ENDBRANCH  28  31
ENDBRANCH  24  25
ENDBRANCH   3  24
TORSDOF 7
ENDMDL
MODEL 2
REMARK VINA RESULT:      -7.4      2.350      3.757
REMARK  7 active torsions:
REMARK  status: ('A' for Active; 'I' for Inactive)
REMARK    1  A    between atoms: O_2  and  C_33 
REMARK       I    between atoms: N_4  and  C_13 
REMARK    2  A    between atoms: N_5  and  C_14 
REMARK    3  A    between atoms: N_6  and  C_19 
REMARK    4  A    between atoms: C_13  and  C_15 
REMARK    5  A    between atoms: C_14  and  C_16 
REMARK    6  A    between atoms: C_19  and  C_24 
REMARK    7  A    between atoms: C_32  and  C_33 
ROOT
HETATM    1  O   UNK N   1      12.655  12.009  19.032  0.00  0.00    -0.259 OA
HETATM    2  N   UNK N   1      14.713  12.957  18.858  0.00  0.00    -0.001 N 
HETATM    3  N   UNK N   1      17.484  12.450  18.025  0.00  0.00     0.096 N 
HETATM    4  C   UNK N   1      15.441  13.846  17.921  0.00  0.00     0.277 C 
HETATM    5  C   UNK N   1      15.284  11.591  18.819  0.00  0.00     0.277 C 
HETATM    6  C   UNK N   1      16.969  13.828  18.135  0.00  0.00     0.301 C 
HETATM    7  C   UNK N   1      16.815  11.569  19.013  0.00  0.00     0.301 C 
HETATM    8  C   UNK N   1      14.850  13.483  20.236  0.00  0.00     0.283 C 
HETATM    9  C   UNK N   1      13.345  12.922  18.591  0.00  0.00     0.351 C 
ENDROOT
BRANCH   9  10
HETATM   10  C   UNK N   1      12.638  14.056  17.942  0.00  0.00     0.040 A 
HETATM   11  C   UNK N   1      11.981  13.865  16.718  0.00  0.00     0.017 A 
HETATM   12  C   UNK N   1      11.300  14.925  16.113  0.00  0.00     0.010 A 
HETATM   13  C   UNK N   1      11.278  16.189  16.723  0.00  0.00    -0.030 A 
HETATM   14  C   UNK N   1      11.948  16.380  17.942  0.00  0.00     0.010 A 
HETATM   15  C   UNK N   1      12.622  15.319  18.548  0.00  0.00     0.017 A 
BRANCH  13  16
HETATM   16  C   UNK N   1      10.560  17.344  16.075  0.00  0.00     0.311 C 
BRANCH  16  17
HETATM   17  N   UNK N   1      10.259  18.400  17.064  0.00  0.00     0.096 N 
HETATM   18  C   UNK N   1      10.152  19.711  16.395  0.00  0.00     0.303 C 
HETATM   19  C   UNK N   1       9.885  20.807  17.430  0.00  0.00     0.302 C 
HETATM   20  N   UNK N   1       8.634  20.515  18.152  0.00  0.00     0.087 N 
HETATM   21  C   UNK N   1       8.733  19.209  18.830  0.00  0.00     0.302 C 
HETATM   22  C   UNK N   1       8.343  21.580  19.123  0.00  0.00     0.310 C 
HETATM   23  C   UNK N   1       9.011  18.106  17.801  0.00  0.00     0.303 C 
ENDBRANCH  16  17
ENDBRANCH  13  16
ENDBRANCH   9  10
BRANCH   3  24
HETATM   24  C   UNK N   1      18.946  12.432  18.238  0.00  0.00     0.311 C 
BRANCH  24  25
HETATM   25  C   UNK N   1      19.668  12.176  16.941  0.00  0.00    -0.030 A 
HETATM   26  C   UNK N   1      21.014  12.547  16.798  0.00  0.00     0.010 A 
HETATM   27  C   UNK N   1      21.692  12.295  15.600  0.00  0.00     0.019 A 
HETATM   28  C   UNK N   1      21.024  11.687  14.521  0.00  0.00     0.037 A 
HETATM   29  C   UNK N   1      19.673  11.328  14.666  0.00  0.00     0.019 A 
HETATM   30  C   UNK N   1      19.005  11.561  15.871  0.00  0.00     0.010 A 
BRANCH  28  31
HETATM   31  C   UNK N   1      21.731  11.425  13.243  0.00  0.00     0.176 C 
HETATM   32  O   UNK N   1      22.888  11.027  13.248  0.00  0.00    -0.646 OA
BRANCH  31  33
HETATM   33  O   UNK N   1      21.100  11.628  12.066  0.00  0.00    -0.773 OA
HETATM   34  H   UNK N   1      20.807  10.885  11.518  0.00  0.00     0.167 HD
ENDBRANCH  31  33
ENDBRANCH  28  31
ENDBRANCH  24  25
ENDBRANCH   3  24
TORSDOF 7
ENDMDL
MODEL 3
REMARK VINA RESULT:      -7.3      1.989      3.037
REMARK  7 active torsions:
REMARK  status: ('A' for Active; 'I' for Inactive)
REMARK    1  A    between atoms: O_2  and  C_33 
REMARK       I    between atoms: N_4  and  C_13 
REMARK    2  A    between atoms: N_5  and  C_14 
REMARK    3  A    between atoms: N_6  and  C_19 
REMARK    4  A    between atoms: C_13  and  C_15 
REMARK    5  A    between atoms: C_14  and  C_16 
REMARK    6  A    between atoms: C_19  and  C_24 
REMARK    7  A    between atoms: C_32  and  C_33 
ROOT
HETATM    1  O   UNK N   1      11.506  13.134  16.741  0.00  0.00    -0.259 OA
HETATM    2  N   UNK N   1      13.455  13.662  17.785  0.00  0.00    -0.001 N 
HETATM    3  N   UNK N   1      16.358  13.211  17.736  0.00  0.00     0.096 N 
HETATM    4  C   UNK N   1      14.436  14.773  17.790  0.00  0.00     0.277 C 
HETATM    5  C   UNK N   1      14.052  12.452  17.173  0.00  0.00     0.277 C 
HETATM    6  C   UNK N   1      15.787  14.383  18.426  0.00  0.00     0.301 C 
HETATM    7  C   UNK N   1      15.413  12.069  17.793  0.00  0.00     0.301 C 
HETATM    8  C   UNK N   1      13.072  13.342  19.179  0.00  0.00     0.283 C 
HETATM    9  C   UNK N   1      12.275  14.008  17.129  0.00  0.00     0.351 C 
ENDROOT
BRANCH   9  10
HETATM   10  C   UNK N   1      11.805  15.414  17.038  0.00  0.00     0.040 A 
HETATM   11  C   UNK N   1      11.665  16.028  15.785  0.00  0.00     0.017 A 
HETATM   12  C   UNK N   1      11.205  17.346  15.696  0.00  0.00     0.010 A 
HETATM   13  C   UNK N   1      10.892  18.064  16.861  0.00  0.00    -0.030 A 
HETATM   14  C   UNK N   1      11.046  17.450  18.114  0.00  0.00     0.010 A 
HETATM   15  C   UNK N   1      11.498  16.132  18.202  0.00  0.00     0.017 A 
BRANCH  13  16
HETATM   16  C   UNK N   1      10.410  19.489  16.780  0.00  0.00     0.311 C 
BRANCH  16  17
HETATM   17  N   UNK N   1       9.177  19.674  17.573  0.00  0.00     0.096 N 
HETATM   18  C   UNK N   1       9.493  20.309  18.867  0.00  0.00     0.303 C 
HETATM   19  C   UNK N   1       8.219  20.458  19.703  0.00  0.00     0.302 C 
HETATM   20  N   UNK N   1       7.239  21.282  18.973  0.00  0.00     0.087 N 
HETATM   21  C   UNK N   1       6.911  20.652  17.681  0.00  0.00     0.302 C 
HETATM   22  C   UNK N   1       6.024  21.466  19.780  0.00  0.00     0.310 C 
HETATM   23  C   UNK N   1       8.184  20.490  16.840  0.00  0.00     0.303 C 
ENDBRANCH  16  17
ENDBRANCH  13  16
ENDBRANCH   9  10
BRANCH   3  24
HETATM   24  C   UNK N   1      17.647  12.834  18.351  0.00  0.00     0.311 C 
BRANCH  24  25
HETATM   25  C   UNK N   1      18.674  12.538  17.290  0.00  0.00    -0.030 A 
HETATM   26  C   UNK N   1      18.281  11.975  16.065  0.00  0.00     0.010 A 
HETATM   27  C   UNK N   1      19.231  11.715  15.072  0.00  0.00     0.019 A 
HETATM   28  C   UNK N   1      20.591  11.996  15.299  0.00  0.00     0.037 A 
HETATM   29  C   UNK N   1      20.980  12.549  16.530  0.00  0.00     0.019 A 
HETATM   30  C   UNK N   1      20.027  12.828  17.513  0.00  0.00     0.010 A 
BRANCH  28  31
HETATM   31  C   UNK N   1      21.608  11.714  14.254  0.00  0.00     0.176 C 
HETATM   32  O   UNK N   1      22.738  12.172  14.353  0.00  0.00    -0.646 OA
BRANCH  31  33
HETATM   33  O   UNK N   1      21.288  10.952  13.186  0.00  0.00    -0.773 OA
HETATM   34  H   UNK N   1      20.369  10.717  12.993  0.00  0.00     0.167 HD
ENDBRANCH  31  33
ENDBRANCH  28  31
ENDBRANCH  24  25
ENDBRANCH   3  24
TORSDOF 7
ENDMDL
MODEL 4
REMARK VINA RESULT:      -6.5      3.162      4.993
REMARK  7 active torsions:
REMARK  status: ('A' for Active; 'I' for Inactive)
REMARK    1  A    between atoms: O_2  and  C_33 
REMARK       I    between atoms: N_4  and  C_13 
REMARK    2  A    between atoms: N_5  and  C_14 
REMARK    3  A    between atoms: N_6  and  C_19 
REMARK    4  A    between atoms: C_13  and  C_15 
REMARK    5  A    between atoms: C_14  and  C_16 
REMARK    6  A    between atoms: C_19  and  C_24 
REMARK    7  A    between atoms: C_32  and  C_33 
ROOT
HETATM    1  O   UNK N   1       8.740  20.195  17.034  0.00  0.00    -0.259 OA
HETATM    2  N   UNK N   1       9.552  18.170  17.668  0.00  0.00    -0.001 N 
HETATM    3  N   UNK N   1      11.599  16.151  17.065  0.00  0.00     0.096 N 
HETATM    4  C   UNK N   1      10.463  17.622  18.701  0.00  0.00     0.277 C 
HETATM    5  C   UNK N   1      10.166  18.051  16.326  0.00  0.00     0.277 C 
HETATM    6  C   UNK N   1      10.944  16.190  18.385  0.00  0.00     0.301 C 
HETATM    7  C   UNK N   1      10.667  16.625  16.013  0.00  0.00     0.301 C 
HETATM    8  C   UNK N   1       8.288  17.398  17.675  0.00  0.00     0.283 C 
HETATM    9  C   UNK N   1       9.199  19.492  17.928  0.00  0.00     0.351 C 
ENDROOT
BRANCH   9  10
HETATM   10  C   UNK N   1       9.180  20.049  19.305  0.00  0.00     0.040 A 
HETATM   11  C   UNK N   1       8.993  21.424  19.504  0.00  0.00     0.017 A 
HETATM   12  C   UNK N   1       8.957  21.948  20.800  0.00  0.00     0.010 A 
HETATM   13  C   UNK N   1       9.117  21.102  21.908  0.00  0.00    -0.030 A 
HETATM   14  C   UNK N   1       9.317  19.727  21.705  0.00  0.00     0.010 A 
HETATM   15  C   UNK N   1       9.346  19.204  20.411  0.00  0.00     0.017 A 
BRANCH  13  16
HETATM   16  C   UNK N   1       9.094  21.655  23.309  0.00  0.00     0.311 C 
BRANCH  16  17
HETATM   17  N   UNK N   1      10.434  22.132  23.710  0.00  0.00     0.096 N 
HETATM   18  C   UNK N   1      11.424  21.046  23.574  0.00  0.00     0.303 C 
HETATM   19  C   UNK N   1      12.802  21.532  24.031  0.00  0.00     0.302 C 
HETATM   20  N   UNK N   1      13.218  22.688  23.216  0.00  0.00     0.087 N 
HETATM   21  C   UNK N   1      12.238  23.781  23.351  0.00  0.00     0.302 C 
HETATM   22  C   UNK N   1      14.557  23.141  23.618  0.00  0.00     0.310 C 
HETATM   23  C   UNK N   1      10.852  23.299  22.904  0.00  0.00     0.303 C 
ENDBRANCH  16  17
ENDBRANCH  13  16
ENDBRANCH   9  10
BRANCH   3  24
HETATM   24  C   UNK N   1      12.053  14.778  16.759  0.00  0.00     0.311 C 
BRANCH  24  25
HETATM   25  C   UNK N   1      13.223  14.401  17.628  0.00  0.00    -0.030 A 
HETATM   26  C   UNK N   1      13.092  13.382  18.584  0.00  0.00     0.010 A 
HETATM   27  C   UNK N   1      14.184  13.018  19.381  0.00  0.00     0.019 A 
HETATM   28  C   UNK N   1      15.415  13.684  19.245  0.00  0.00     0.037 A 
HETATM   29  C   UNK N   1      15.537  14.711  18.294  0.00  0.00     0.019 A 
HETATM   30  C   UNK N   1      14.453  15.058  17.484  0.00  0.00     0.010 A 
BRANCH  28  31
HETATM   31  C   UNK N   1      16.576  13.312  20.093  0.00  0.00     0.176 C 
HETATM   32  O   UNK N   1      16.996  12.164  20.095  0.00  0.00    -0.646 OA
BRANCH  31  33
HETATM   33  O   UNK N   1      17.173  14.243  20.869  0.00  0.00    -0.773 OA
HETATM   34  H   UNK N   1      18.136  14.333  20.895  0.00  0.00     0.167 HD
ENDBRANCH  31  33
ENDBRANCH  28  31
ENDBRANCH  24  25
ENDBRANCH   3  24
TORSDOF 7
ENDMDL
MODEL 5
REMARK VINA RESULT:      -6.1      3.577     11.519
REMARK  7 active torsions:
REMARK  status: ('A' for Active; 'I' for Inactive)
REMARK    1  A    between atoms: O_2  and  C_33 
REMARK       I    between atoms: N_4  and  C_13 
REMARK    2  A    between atoms: N_5  and  C_14 
REMARK    3  A    between atoms: N_6  and  C_19 
REMARK    4  A    between atoms: C_13  and  C_15 
REMARK    5  A    between atoms: C_14  and  C_16 
REMARK    6  A    between atoms: C_19  and  C_24 
REMARK    7  A    between atoms: C_32  and  C_33 
ROOT
HETATM    1  O   UNK N   1       9.936  16.510  14.497  0.00  0.00    -0.259 OA
HETATM    2  N   UNK N   1      10.036  18.207  16.006  0.00  0.00    -0.001 N 
HETATM    3  N   UNK N   1       8.402  20.130  17.511  0.00  0.00     0.096 N 
HETATM    4  C   UNK N   1      10.144  18.370  17.475  0.00  0.00     0.277 C 
HETATM    5  C   UNK N   1       8.698  18.636  15.539  0.00  0.00     0.277 C 
HETATM    6  C   UNK N   1       9.765  19.786  17.956  0.00  0.00     0.301 C 
HETATM    7  C   UNK N   1       8.306  20.044  16.033  0.00  0.00     0.301 C 
HETATM    8  C   UNK N   1      11.056  19.053  15.345  0.00  0.00     0.283 C 
HETATM    9  C   UNK N   1      10.298  16.899  15.603  0.00  0.00     0.351 C 
ENDROOT
BRANCH   9  10
HETATM   10  C   UNK N   1      11.172  15.991  16.388  0.00  0.00     0.040 A 
HETATM   11  C   UNK N   1      11.956  16.500  17.434  0.00  0.00     0.017 A 
HETATM   12  C   UNK N   1      12.766  15.644  18.186  0.00  0.00     0.010 A 
HETATM   13  C   UNK N   1      12.808  14.272  17.892  0.00  0.00    -0.030 A 
HETATM   14  C   UNK N   1      12.032  13.768  16.836  0.00  0.00     0.010 A 
HETATM   15  C   UNK N   1      11.218  14.622  16.090  0.00  0.00     0.017 A 
BRANCH  13  16
HETATM   16  C   UNK N   1      13.687  13.341  18.686  0.00  0.00     0.311 C 
BRANCH  16  17
HETATM   17  N   UNK N   1      15.066  13.338  18.155  0.00  0.00     0.096 N 
HETATM   18  C   UNK N   1      15.957  12.578  19.053  0.00  0.00     0.303 C 
HETATM   19  C   UNK N   1      17.393  12.615  18.521  0.00  0.00     0.302 C 
HETATM   20  N   UNK N   1      17.437  12.032  17.168  0.00  0.00     0.087 N 
HETATM   21  C   UNK N   1      16.555  12.789  16.261  0.00  0.00     0.302 C 
HETATM   22  C   UNK N   1      18.816  12.025  16.660  0.00  0.00     0.310 C 
HETATM   23  C   UNK N   1      15.115  12.766  16.792  0.00  0.00     0.303 C 
ENDBRANCH  16  17
ENDBRANCH  13  16
ENDBRANCH   9  10
BRANCH   3  24
HETATM   24  C   UNK N   1       8.043  21.489  17.964  0.00  0.00     0.311 C 
BRANCH  24  25
HETATM   25  C   UNK N   1       7.669  21.480  19.423  0.00  0.00    -0.030 A 
HETATM   26  C   UNK N   1       6.369  21.126  19.816  0.00  0.00     0.010 A 
HETATM   27  C   UNK N   1       6.024  21.101  21.171  0.00  0.00     0.019 A 
HETATM   28  C   UNK N   1       6.971  21.450  22.151  0.00  0.00     0.037 A 
HETATM   29  C   UNK N   1       8.268  21.815  21.752  0.00  0.00     0.019 A 
HETATM   30  C   UNK N   1       8.616  21.819  20.399  0.00  0.00     0.010 A 
BRANCH  28  31
HETATM   31  C   UNK N   1       6.612  21.436  23.592  0.00  0.00     0.176 C 
HETATM   32  O   UNK N   1       6.483  22.486  24.206  0.00  0.00    -0.646 OA
BRANCH  31  33
HETATM   33  O   UNK N   1       6.428  20.261  24.232  0.00  0.00    -0.773 OA
HETATM   34  H   UNK N   1       5.981  19.518  23.801  0.00  0.00     0.167 HD
ENDBRANCH  31  33
ENDBRANCH  28  31
ENDBRANCH  24  25
ENDBRANCH   3  24
TORSDOF 7
ENDMDL
MODEL 6
REMARK VINA RESULT:      -5.8      3.149     11.401
REMARK  7 active torsions:
REMARK  status: ('A' for Active; 'I' for Inactive)
REMARK    1  A    between atoms: O_2  and  C_33 
REMARK       I    between atoms: N_4  and  C_13 
REMARK    2  A    between atoms: N_5  and  C_14 
REMARK    3  A    between atoms: N_6  and  C_19 
REMARK    4  A    between atoms: C_13  and  C_15 
REMARK    5  A    between atoms: C_14  and  C_16 
REMARK    6  A    between atoms: C_19  and  C_24 
REMARK    7  A    between atoms: C_32  and  C_33 
ROOT
HETATM    1  O   UNK N   1      11.106  14.069  15.834  0.00  0.00    -0.259 OA
HETATM    2  N   UNK N   1      11.169  16.129  16.792  0.00  0.00    -0.001 N 
HETATM    3  N   UNK N   1       9.531  18.148  18.161  0.00  0.00     0.096 N 
HETATM    4  C   UNK N   1      11.560  16.730  18.090  0.00  0.00     0.277 C 
HETATM    5  C   UNK N   1       9.700  16.202  16.615  0.00  0.00     0.277 C 
HETATM    6  C   UNK N   1      11.001  18.154  18.290  0.00  0.00     0.301 C 
HETATM    7  C   UNK N   1       9.133  17.620  16.834  0.00  0.00     0.301 C 
HETATM    8  C   UNK N   1      11.811  16.884  15.692  0.00  0.00     0.283 C 
HETATM    9  C   UNK N   1      11.611  14.813  16.669  0.00  0.00     0.351 C 
ENDROOT
BRANCH   9  10
HETATM   10  C   UNK N   1      12.811  14.313  17.386  0.00  0.00     0.040 A 
HETATM   11  C   UNK N   1      12.773  13.071  18.038  0.00  0.00     0.017 A 
HETATM   12  C   UNK N   1      13.906  12.590  18.699  0.00  0.00     0.010 A 
HETATM   13  C   UNK N   1      15.086  13.351  18.723  0.00  0.00    -0.030 A 
HETATM   14  C   UNK N   1      15.116  14.599  18.081  0.00  0.00     0.010 A 
HETATM   15  C   UNK N   1      13.986  15.076  17.415  0.00  0.00     0.017 A 
BRANCH  13  16
HETATM   16  C   UNK N   1      16.310  12.850  19.444  0.00  0.00     0.311 C 
BRANCH  16  17
HETATM   17  N   UNK N   1      17.298  12.305  18.489  0.00  0.00     0.096 N 
HETATM   18  C   UNK N   1      16.741  12.307  17.123  0.00  0.00     0.303 C 
HETATM   19  C   UNK N   1      17.751  11.701  16.144  0.00  0.00     0.302 C 
HETATM   20  N   UNK N   1      19.001  12.483  16.172  0.00  0.00     0.087 N 
HETATM   21  C   UNK N   1      19.569  12.481  17.532  0.00  0.00     0.302 C 
HETATM   22  C   UNK N   1      19.967  11.936  15.208  0.00  0.00     0.310 C 
HETATM   23  C   UNK N   1      18.559  13.078  18.521  0.00  0.00     0.303 C 
ENDBRANCH  16  17
ENDBRANCH  13  16
ENDBRANCH   9  10
BRANCH   3  24
HETATM   24  C   UNK N   1       8.997  19.514  18.346  0.00  0.00     0.311 C 
BRANCH  24  25
HETATM   25  C   UNK N   1       8.369  19.659  19.706  0.00  0.00    -0.030 A 
HETATM   26  C   UNK N   1       8.643  18.719  20.713  0.00  0.00     0.010 A 
HETATM   27  C   UNK N   1       8.074  18.861  21.983  0.00  0.00     0.019 A 
HETATM   28  C   UNK N   1       7.207  19.934  22.257  0.00  0.00     0.037 A 
HETATM   29  C   UNK N   1       6.928  20.865  21.243  0.00  0.00     0.019 A 
HETATM   30  C   UNK N   1       7.514  20.734  19.981  0.00  0.00     0.010 A 
BRANCH  28  31
HETATM   31  C   UNK N   1       6.591  20.087  23.599  0.00  0.00     0.176 C 
HETATM   32  O   UNK N   1       6.315  19.101  24.268  0.00  0.00    -0.646 OA
BRANCH  31  33
HETATM   33  O   UNK N   1       6.329  21.319  24.087  0.00  0.00    -0.773 OA
HETATM   34  H   UNK N   1       6.110  22.057  23.499  0.00  0.00     0.167 HD
ENDBRANCH  31  33
ENDBRANCH  28  31
ENDBRANCH  24  25
ENDBRANCH   3  24
TORSDOF 7
ENDMDL
