MODEL 1
REMARK VINA RESULT:      -6.6      0.000      0.000
REMARK  2 active torsions:
REMARK  status: ('A' for Active; 'I' for Inactive)
REMARK    1  A    between atoms: N_1  and  C_7 
REMARK    2  A    between atoms: N_3  and  C_8 
REMARK       I    between atoms: N_4  and  C_13 
REMARK       I    between atoms: N_5  and  C_13 
ROOT
HETATM    1  C   UNK N   1      18.935  12.849  17.885  0.00  0.00    -0.032 A 
HETATM    2  C   UNK N   1      17.899  12.379  17.052  0.00  0.00     0.081 A 
HETATM    3  C   UNK N   1      18.199  11.875  15.768  0.00  0.00     0.053 A 
HETATM    4  C   UNK N   1      20.259  12.827  17.420  0.00  0.00     0.009 A 
HETATM    5  C   UNK N   1      19.528  11.867  15.323  0.00  0.00     0.031 A 
HETATM    6  C   UNK N   1      18.631  13.389  19.256  0.00  0.00     0.050 C 
HETATM    7  C   UNK N   1      20.549  12.347  16.143  0.00  0.00     0.003 A 
ENDROOT
BRANCH   2   8
HETATM    8  N   UNK N   1      16.548  12.466  17.484  0.00  0.00    -0.190 N 
HETATM    9  C   UNK N   1      16.002  11.547  18.212  0.00  0.00     0.670 C 
HETATM   10  N   UNK N   1      14.650  11.685  18.617  0.00  0.00    -0.235 N 
HETATM   11  N   UNK N   1      16.732  10.389  18.616  0.00  0.00    -0.235 N 
HETATM   12  H   UNK N   1      14.101  12.511  18.339  0.00  0.00     0.174 HD
HETATM   13  H   UNK N   1      14.207  10.957  19.194  0.00  0.00     0.174 HD
HETATM   14  H   UNK N   1      16.278   9.669  19.192  0.00  0.00     0.174 HD
HETATM   15  H   UNK N   1      17.715  10.245  18.344  0.00  0.00     0.174 HD
ATOM     16  HN  UNK N   1      15.992  13.277  17.213  1.00  0.00     0.184 HD
ENDBRANCH   2   8
BRANCH   3  17
HETATM   17  N   UNK N   1      17.171  11.388  14.917  0.00  0.00    -0.397 N 
HETATM   18  H   UNK N   1      17.328  11.312  13.902  0.00  0.00     0.156 HD
HETATM   19  H   UNK N   1      16.263  11.084  15.297  0.00  0.00     0.156 HD
ENDBRANCH   3  17
TORSDOF 2
ENDMDL
MODEL 2
REMARK VINA RESULT:      -6.3      1.735      2.573
REMARK  2 active torsions:
REMARK  status: ('A' for Active; 'I' for Inactive)
REMARK    1  A    between atoms: N_1  and  C_7 
REMARK    2  A    between atoms: N_3  and  C_8 
REMARK       I    between atoms: N_4  and  C_13 
REMARK       I    between atoms: N_5  and  C_13 
ROOT
HETATM    1  C   UNK N   1      17.974  13.498  19.749  0.00  0.00    -0.032 A 
HETATM    2  C   UNK N   1      16.997  12.691  19.130  0.00  0.00     0.081 A 
HETATM    3  C   UNK N   1      17.297  12.017  17.926  0.00  0.00     0.053 A 
HETATM    4  C   UNK N   1      19.235  13.639  19.149  0.00  0.00     0.009 A 
HETATM    5  C   UNK N   1      18.562  12.176  17.343  0.00  0.00     0.031 A 
HETATM    6  C   UNK N   1      17.668  14.222  21.032  0.00  0.00     0.050 C 
HETATM    7  C   UNK N   1      19.521  12.988  17.949  0.00  0.00     0.003 A 
ENDROOT
BRANCH   2   8
HETATM    8  N   UNK N   1      15.694  12.600  19.689  0.00  0.00    -0.190 N 
HETATM    9  C   UNK N   1      14.763  13.449  19.399  0.00  0.00     0.670 C 
HETATM   10  N   UNK N   1      13.480  13.310  19.984  0.00  0.00    -0.235 N 
HETATM   11  N   UNK N   1      15.001  14.531  18.498  0.00  0.00    -0.235 N 
HETATM   12  H   UNK N   1      13.282  12.537  20.636  0.00  0.00     0.174 HD
HETATM   13  H   UNK N   1      12.734  13.983  19.760  0.00  0.00     0.174 HD
HETATM   14  H   UNK N   1      14.247  15.197  18.283  0.00  0.00     0.174 HD
HETATM   15  H   UNK N   1      15.918  14.673  18.051  0.00  0.00     0.174 HD
ATOM     16  HN  UNK N   1      15.486  11.842  20.340  1.00  0.00     0.184 HD
ENDBRANCH   2   8
BRANCH   3  17
HETATM   17  N   UNK N   1      16.332  11.191  17.292  0.00  0.00    -0.397 N 
HETATM   18  H   UNK N   1      15.345  11.481  17.249  0.00  0.00     0.156 HD
HETATM   19  H   UNK N   1      16.601  10.300  16.847  0.00  0.00     0.156 HD
ENDBRANCH   3  17
TORSDOF 2
ENDMDL
MODEL 3
REMARK VINA RESULT:      -5.9      1.311      3.654
REMARK  2 active torsions:
REMARK  status: ('A' for Active; 'I' for Inactive)
REMARK    1  A    between atoms: N_1  and  C_7 
REMARK    2  A    between atoms: N_3  and  C_8 
REMARK       I    between atoms: N_4  and  C_13 
REMARK       I    between atoms: N_5  and  C_13 
ROOT
HETATM    1  C   UNK N   1      18.561  13.026  18.547  0.00  0.00    -0.032 A 
HETATM    2  C   UNK N   1      17.498  12.267  18.016  0.00  0.00     0.081 A 
HETATM    3  C   UNK N   1      16.253  12.234  18.681  0.00  0.00     0.053 A 
HETATM    4  C   UNK N   1      18.376  13.732  19.745  0.00  0.00     0.009 A 
HETATM    5  C   UNK N   1      16.092  12.943  19.879  0.00  0.00     0.031 A 
HETATM    6  C   UNK N   1      19.893  13.071  17.849  0.00  0.00     0.050 C 
HETATM    7  C   UNK N   1      17.150  13.681  20.410  0.00  0.00     0.003 A 
ENDROOT
BRANCH   2   8
HETATM    8  N   UNK N   1      17.698  11.490  16.843  0.00  0.00    -0.190 N 
HETATM    9  C   UNK N   1      17.273  11.878  15.685  0.00  0.00     0.670 C 
HETATM   10  N   UNK N   1      17.502  11.064  14.546  0.00  0.00    -0.235 N 
HETATM   11  N   UNK N   1      16.573  13.111  15.526  0.00  0.00    -0.235 N 
HETATM   12  H   UNK N   1      18.006  10.170  14.633  0.00  0.00     0.174 HD
HETATM   13  H   UNK N   1      17.165  11.365  13.621  0.00  0.00     0.174 HD
HETATM   14  H   UNK N   1      16.241  13.399  14.596  0.00  0.00     0.174 HD
HETATM   15  H   UNK N   1      16.382  13.734  16.325  0.00  0.00     0.174 HD
ATOM     16  HN  UNK N   1      18.192  10.600  16.916  1.00  0.00     0.184 HD
ENDBRANCH   2   8
BRANCH   3  17
HETATM   17  N   UNK N   1      15.166  11.484  18.159  0.00  0.00    -0.397 N 
HETATM   18  H   UNK N   1      15.255  10.468  18.016  0.00  0.00     0.156 HD
HETATM   19  H   UNK N   1      14.266  11.934  17.933  0.00  0.00     0.156 HD
ENDBRANCH   3  17
TORSDOF 2
ENDMDL
MODEL 4
REMARK VINA RESULT:      -5.8      2.381      3.705
REMARK  2 active torsions:
REMARK  status: ('A' for Active; 'I' for Inactive)
REMARK    1  A    between atoms: N_1  and  C_7 
REMARK    2  A    between atoms: N_3  and  C_8 
REMARK       I    between atoms: N_4  and  C_13 
REMARK       I    between atoms: N_5  and  C_13 
ROOT
HETATM    1  C   UNK N   1      17.381  12.237  18.178  0.00  0.00    -0.032 A 
HETATM    2  C   UNK N   1      16.994  12.897  19.362  0.00  0.00     0.081 A 
HETATM    3  C   UNK N   1      17.911  13.729  20.040  0.00  0.00     0.053 A 
HETATM    4  C   UNK N   1      18.688  12.400  17.692  0.00  0.00     0.009 A 
HETATM    5  C   UNK N   1      19.212  13.873  19.539  0.00  0.00     0.031 A 
HETATM    6  C   UNK N   1      16.414  11.347  17.445  0.00  0.00     0.050 C 
HETATM    7  C   UNK N   1      19.598  13.207  18.376  0.00  0.00     0.003 A 
ENDROOT
BRANCH   2   8
HETATM    8  N   UNK N   1      15.697  12.680  19.903  0.00  0.00    -0.190 N 
HETATM    9  C   UNK N   1      14.696  13.444  19.608  0.00  0.00     0.670 C 
HETATM   10  N   UNK N   1      13.424  13.180  20.174  0.00  0.00    -0.235 N 
HETATM   11  N   UNK N   1      14.845  14.553  18.722  0.00  0.00    -0.235 N 
HETATM   12  H   UNK N   1      13.289  12.385  20.815  0.00  0.00     0.174 HD
HETATM   13  H   UNK N   1      12.622  13.784  19.946  0.00  0.00     0.174 HD
HETATM   14  H   UNK N   1      14.036  15.149  18.503  0.00  0.00     0.174 HD
HETATM   15  H   UNK N   1      15.751  14.784  18.289  0.00  0.00     0.174 HD
ATOM     16  HN  UNK N   1      15.552  11.899  20.543  1.00  0.00     0.184 HD
ENDBRANCH   2   8
BRANCH   3  17
HETATM   17  N   UNK N   1      17.538  14.411  21.229  0.00  0.00    -0.397 N 
HETATM   18  H   UNK N   1      17.458  15.437  21.237  0.00  0.00     0.156 HD
HETATM   19  H   UNK N   1      17.323  13.894  22.095  0.00  0.00     0.156 HD
ENDBRANCH   3  17
TORSDOF 2
ENDMDL
MODEL 5
REMARK VINA RESULT:      -5.8      1.193      2.609
REMARK  2 active torsions:
REMARK  status: ('A' for Active; 'I' for Inactive)
REMARK    1  A    between atoms: N_1  and  C_7 
REMARK    2  A    between atoms: N_3  and  C_8 
REMARK       I    between atoms: N_4  and  C_13 
REMARK       I    between atoms: N_5  and  C_13 
ROOT
HETATM    1  C   UNK N   1      18.074  12.089  16.431  0.00  0.00    -0.032 A 
HETATM    2  C   UNK N   1      17.462  12.450  17.649  0.00  0.00     0.081 A 
HETATM    3  C   UNK N   1      18.232  13.022  18.685  0.00  0.00     0.053 A 
HETATM    4  C   UNK N   1      19.454  12.285  16.267  0.00  0.00     0.009 A 
HETATM    5  C   UNK N   1      19.609  13.205  18.500  0.00  0.00     0.031 A 
HETATM    6  C   UNK N   1      17.265  11.479  15.319  0.00  0.00     0.050 C 
HETATM    7  C   UNK N   1      20.216  12.832  17.300  0.00  0.00     0.003 A 
ENDROOT
BRANCH   2   8
HETATM    8  N   UNK N   1      16.079  12.188  17.853  0.00  0.00    -0.190 N 
HETATM    9  C   UNK N   1      15.669  11.152  18.508  0.00  0.00     0.670 C 
HETATM   10  N   UNK N   1      14.278  10.940  18.683  0.00  0.00    -0.235 N 
HETATM   11  N   UNK N   1      16.589  10.209  19.058  0.00  0.00    -0.235 N 
HETATM   12  H   UNK N   1      13.593  11.605  18.297  0.00  0.00     0.174 HD
HETATM   13  H   UNK N   1      13.943  10.116  19.201  0.00  0.00     0.174 HD
HETATM   14  H   UNK N   1      16.240   9.390  19.573  0.00  0.00     0.174 HD
HETATM   15  H   UNK N   1      17.608  10.321  18.954  0.00  0.00     0.174 HD
ATOM     16  HN  UNK N   1      15.391  12.837  17.472  1.00  0.00     0.184 HD
ENDBRANCH   2   8
BRANCH   3  17
HETATM   17  N   UNK N   1      17.634  13.403  19.915  0.00  0.00    -0.397 N 
HETATM   18  H   UNK N   1      16.683  13.798  19.932  0.00  0.00     0.156 HD
HETATM   19  H   UNK N   1      18.127  13.274  20.811  0.00  0.00     0.156 HD
ENDBRANCH   3  17
TORSDOF 2
ENDMDL
MODEL 6
REMARK VINA RESULT:      -5.7      2.775      3.651
REMARK  2 active torsions:
REMARK  status: ('A' for Active; 'I' for Inactive)
REMARK    1  A    between atoms: N_1  and  C_7 
REMARK    2  A    between atoms: N_3  and  C_8 
REMARK       I    between atoms: N_4  and  C_13 
REMARK       I    between atoms: N_5  and  C_13 
ROOT
HETATM    1  C   UNK N   1      16.273  11.368  18.171  0.00  0.00    -0.032 A 
HETATM    2  C   UNK N   1      15.025  12.025  18.175  0.00  0.00     0.081 A 
HETATM    3  C   UNK N   1      14.717  12.963  17.166  0.00  0.00     0.053 A 
HETATM    4  C   UNK N   1      17.209  11.669  17.170  0.00  0.00     0.009 A 
HETATM    5  C   UNK N   1      15.669  13.251  16.179  0.00  0.00     0.031 A 
HETATM    6  C   UNK N   1      16.614  10.366  19.240  0.00  0.00     0.050 C 
HETATM    7  C   UNK N   1      16.909  12.612  16.186  0.00  0.00     0.003 A 
ENDROOT
BRANCH   2   8
HETATM    8  N   UNK N   1      14.099  11.782  19.227  0.00  0.00    -0.190 N 
HETATM    9  C   UNK N   1      13.963  12.598  20.220  0.00  0.00     0.670 C 
HETATM   10  N   UNK N   1      13.022  12.307  21.240  0.00  0.00    -0.235 N 
HETATM   11  N   UNK N   1      14.744  13.789  20.316  0.00  0.00    -0.235 N 
HETATM   12  H   UNK N   1      12.446  11.455  21.196  0.00  0.00     0.174 HD
HETATM   13  H   UNK N   1      12.909  12.950  22.037  0.00  0.00     0.174 HD
HETATM   14  H   UNK N   1      14.621  14.422  21.116  0.00  0.00     0.174 HD
HETATM   15  H   UNK N   1      15.440  14.040  19.599  0.00  0.00     0.174 HD
ATOM     16  HN  UNK N   1      13.525  10.939  19.196  1.00  0.00     0.184 HD
ENDBRANCH   2   8
BRANCH   3  17
HETATM   17  N   UNK N   1      13.463  13.629  17.146  0.00  0.00    -0.397 N 
HETATM   18  H   UNK N   1      13.341  14.528  17.634  0.00  0.00     0.156 HD
HETATM   19  H   UNK N   1      12.660  13.239  16.630  0.00  0.00     0.156 HD
ENDBRANCH   3  17
TORSDOF 2
ENDMDL
MODEL 7
REMARK VINA RESULT:      -5.7      2.276      4.855
REMARK  2 active torsions:
REMARK  status: ('A' for Active; 'I' for Inactive)
REMARK    1  A    between atoms: N_1  and  C_7 
REMARK    2  A    between atoms: N_3  and  C_8 
REMARK       I    between atoms: N_4  and  C_13 
REMARK       I    between atoms: N_5  and  C_13 
ROOT
HETATM    1  C   UNK N   1      14.462  13.781  18.047  0.00  0.00    -0.032 A 
HETATM    2  C   UNK N   1      15.089  12.545  17.784  0.00  0.00     0.081 A 
HETATM    3  C   UNK N   1      14.905  11.458  18.665  0.00  0.00     0.053 A 
HETATM    4  C   UNK N   1      13.672  13.923  19.198  0.00  0.00     0.009 A 
HETATM    5  C   UNK N   1      14.114  11.624  19.811  0.00  0.00     0.031 A 
HETATM    6  C   UNK N   1      14.650  14.948  17.117  0.00  0.00     0.050 C 
HETATM    7  C   UNK N   1      13.508  12.852  20.077  0.00  0.00     0.003 A 
ENDROOT
BRANCH   2   8
HETATM    8  N   UNK N   1      15.951  12.412  16.661  0.00  0.00    -0.190 N 
HETATM    9  C   UNK N   1      17.238  12.395  16.784  0.00  0.00     0.670 C 
HETATM   10  N   UNK N   1      18.050  12.258  15.630  0.00  0.00    -0.235 N 
HETATM   11  N   UNK N   1      17.863  12.516  18.062  0.00  0.00    -0.235 N 
HETATM   12  H   UNK N   1      17.624  12.168  14.696  0.00  0.00     0.174 HD
HETATM   13  H   UNK N   1      19.075  12.246  15.719  0.00  0.00     0.174 HD
HETATM   14  H   UNK N   1      18.888  12.503  18.136  0.00  0.00     0.174 HD
HETATM   15  H   UNK N   1      17.314  12.619  18.927  0.00  0.00     0.174 HD
ATOM     16  HN  UNK N   1      15.541  12.327  15.731  1.00  0.00     0.184 HD
ENDBRANCH   2   8
BRANCH   3  17
HETATM   17  N   UNK N   1      15.518  10.202  18.414  0.00  0.00    -0.397 N 
HETATM   18  H   UNK N   1      16.536  10.139  18.266  0.00  0.00     0.156 HD
HETATM   19  H   UNK N   1      14.965   9.332  18.393  0.00  0.00     0.156 HD
ENDBRANCH   3  17
TORSDOF 2
ENDMDL
MODEL 8
REMARK VINA RESULT:      -5.7      2.507      3.825
REMARK  2 active torsions:
REMARK  status: ('A' for Active; 'I' for Inactive)
REMARK    1  A    between atoms: N_1  and  C_7 
REMARK    2  A    between atoms: N_3  and  C_8 
REMARK       I    between atoms: N_4  and  C_13 
REMARK       I    between atoms: N_5  and  C_13 
ROOT
HETATM    1  C   UNK N   1      14.847  12.994  17.145  0.00  0.00    -0.032 A 
HETATM    2  C   UNK N   1      15.129  12.087  18.187  0.00  0.00     0.081 A 
HETATM    3  C   UNK N   1      16.358  11.393  18.207  0.00  0.00     0.053 A 
HETATM    4  C   UNK N   1      15.789  13.186  16.123  0.00  0.00     0.009 A 
HETATM    5  C   UNK N   1      17.282  11.597  17.173  0.00  0.00     0.031 A 
HETATM    6  C   UNK N   1      13.541  13.741  17.112  0.00  0.00     0.050 C 
HETATM    7  C   UNK N   1      16.994  12.483  16.134  0.00  0.00     0.003 A 
ENDROOT
BRANCH   2   8
HETATM    8  N   UNK N   1      14.152  11.830  19.188  0.00  0.00    -0.190 N 
HETATM    9  C   UNK N   1      13.993  12.611  20.205  0.00  0.00     0.670 C 
HETATM   10  N   UNK N   1      13.001  12.309  21.172  0.00  0.00    -0.235 N 
HETATM   11  N   UNK N   1      14.800  13.776  20.380  0.00  0.00    -0.235 N 
HETATM   12  H   UNK N   1      12.405  11.475  21.070  0.00  0.00     0.174 HD
HETATM   13  H   UNK N   1      12.870  12.925  21.987  0.00  0.00     0.174 HD
HETATM   14  H   UNK N   1      14.658  14.383  21.199  0.00  0.00     0.174 HD
HETATM   15  H   UNK N   1      15.533  14.035  19.705  0.00  0.00     0.174 HD
ATOM     16  HN  UNK N   1      13.558  11.005  19.099  1.00  0.00     0.184 HD
ENDBRANCH   2   8
BRANCH   3  17
HETATM   17  N   UNK N   1      16.666  10.482  19.252  0.00  0.00    -0.397 N 
HETATM   18  H   UNK N   1      16.949  10.830  20.180  0.00  0.00     0.156 HD
HETATM   19  H   UNK N   1      16.594   9.464  19.111  0.00  0.00     0.156 HD
ENDBRANCH   3  17
TORSDOF 2
ENDMDL
MODEL 9
REMARK VINA RESULT:      -5.6      1.462      3.008
REMARK  2 active torsions:
REMARK  status: ('A' for Active; 'I' for Inactive)
REMARK    1  A    between atoms: N_1  and  C_7 
REMARK    2  A    between atoms: N_3  and  C_8 
REMARK       I    between atoms: N_4  and  C_13 
REMARK       I    between atoms: N_5  and  C_13 
ROOT
HETATM    1  C   UNK N   1      17.912  12.185  16.329  0.00  0.00    -0.032 A 
HETATM    2  C   UNK N   1      17.191  12.372  17.527  0.00  0.00     0.081 A 
HETATM    3  C   UNK N   1      17.854  12.826  18.687  0.00  0.00     0.053 A 
HETATM    4  C   UNK N   1      19.292  12.437  16.307  0.00  0.00     0.009 A 
HETATM    5  C   UNK N   1      19.234  13.067  18.643  0.00  0.00     0.031 A 
HETATM    6  C   UNK N   1      17.218  11.701  15.085  0.00  0.00     0.050 C 
HETATM    7  C   UNK N   1      19.948  12.867  17.461  0.00  0.00     0.003 A 
ENDROOT
BRANCH   2   8
HETATM    8  N   UNK N   1      15.808  12.049  17.579  0.00  0.00    -0.190 N 
HETATM    9  C   UNK N   1      14.889  12.951  17.460  0.00  0.00     0.670 C 
HETATM   10  N   UNK N   1      13.524  12.572  17.518  0.00  0.00    -0.235 N 
HETATM   11  N   UNK N   1      15.220  14.327  17.274  0.00  0.00    -0.235 N 
HETATM   12  H   UNK N   1      13.258  11.586  17.651  0.00  0.00     0.174 HD
HETATM   13  H   UNK N   1      12.787  13.285  17.426  0.00  0.00     0.174 HD
HETATM   14  H   UNK N   1      14.474  15.028  17.184  0.00  0.00     0.174 HD
HETATM   15  H   UNK N   1      16.198  14.648  17.228  0.00  0.00     0.174 HD
ATOM     16  HN  UNK N   1      15.531  11.076  17.715  1.00  0.00     0.184 HD
ENDBRANCH   2   8
BRANCH   3  17
HETATM   17  N   UNK N   1      17.146  13.030  19.901  0.00  0.00    -0.397 N 
HETATM   18  H   UNK N   1      16.454  13.789  19.979  0.00  0.00     0.156 HD
HETATM   19  H   UNK N   1      17.294  12.415  20.715  0.00  0.00     0.156 HD
ENDBRANCH   3  17
TORSDOF 2
ENDMDL
