MODEL 1
REMARK VINA RESULT:      27.5      0.000      0.000
REMARK  7 active torsions:
REMARK  status: ('A' for Active; 'I' for Inactive)
REMARK    1  A    between atoms: N_3  and  C_23 
REMARK       I    between atoms: N_4  and  C_24 
REMARK    2  A    between atoms: N_5  and  C_25 
REMARK       I    between atoms: N_7  and  C_37 
REMARK    3  A    between atoms: N_7  and  C_38 
REMARK    4  A    between atoms: N_8  and  C_41 
REMARK       I    between atoms: N_8  and  C_45 
REMARK    5  A    between atoms: C_24  and  C_26 
REMARK    6  A    between atoms: C_36  and  C_37 
REMARK    7  A    between atoms: C_46  and  C_49 
ROOT
HETATM    1  O   UNK N   1      11.851  19.979  21.898  0.00  0.00    -0.267 OA
HETATM    2  N   UNK N   1       9.970  18.737  21.848  0.00  0.00    -0.323 N 
HETATM    3  C   UNK N   1      11.331  18.887  21.736  0.00  0.00     0.256 C 
HETATM    4  H   UNK N   1       9.588  17.789  21.788  0.00  0.00     0.169 HD
ENDROOT
BRANCH   3   5
HETATM    5  C   UNK N   1      12.224  17.711  21.435  0.00  0.00     0.032 A 
HETATM    6  C   UNK N   1      13.380  17.433  22.193  0.00  0.00     0.019 A 
HETATM    7  C   UNK N   1      14.174  16.330  21.905  0.00  0.00     0.030 A 
HETATM    8  C   UNK N   1      13.852  15.454  20.852  0.00  0.00     0.030 A 
HETATM    9  C   UNK N   1      12.691  15.722  20.094  0.00  0.00     0.030 A 
HETATM   10  C   UNK N   1      11.894  16.837  20.381  0.00  0.00     0.019 A 
BRANCH   8  11
HETATM   11  N   UNK N   1      14.675  14.300  20.591  0.00  0.00    -0.378 N 
HETATM   12  C   UNK N   1      14.106  12.954  20.649  0.00  0.00     0.143 C 
HETATM   13  C   UNK N   1      15.189  11.858  20.560  0.00  0.00     0.146 C 
HETATM   14  N   UNK N   1      16.149  12.101  19.483  0.00  0.00    -0.345 N 
HETATM   15  C   UNK N   1      16.161  13.428  18.869  0.00  0.00     0.146 C 
HETATM   16  C   UNK N   1      17.134  11.167  19.232  0.00  0.00     0.253 C 
HETATM   17  C   UNK N   1      15.991  14.467  19.975  0.00  0.00     0.143 C 
HETATM   18  O   UNK N   1      17.245  10.202  19.976  0.00  0.00    -0.267 OA
BRANCH  16  19
HETATM   19  C   UNK N   1      18.077  11.262  18.069  0.00  0.00     0.032 A 
HETATM   20  C   UNK N   1      19.371  11.774  18.253  0.00  0.00     0.019 A 
HETATM   21  C   UNK N   1      20.263  11.864  17.178  0.00  0.00     0.030 A 
HETATM   22  C   UNK N   1      19.885  11.427  15.887  0.00  0.00     0.030 A 
HETATM   23  C   UNK N   1      18.593  10.886  15.723  0.00  0.00     0.030 A 
HETATM   24  C   UNK N   1      17.714  10.796  16.795  0.00  0.00     0.019 A 
BRANCH  22  25
HETATM   25  N   UNK N   1      20.791  11.515  14.764  0.00  0.00    -0.378 N 
HETATM   26  C   UNK N   1      22.215  11.737  15.005  0.00  0.00     0.153 C 
HETATM   27  C   UNK N   1      22.859  12.415  13.793  0.00  0.00     0.291 C 
HETATM   28  N   UNK N   1      22.587  11.625  12.577  0.00  0.00     0.087 N 
HETATM   29  C   UNK N   1      21.135  11.569  12.339  0.00  0.00     0.291 C 
HETATM   30  C   UNK N   1      23.274  12.211  11.418  0.00  0.00     0.310 C 
HETATM   31  C   UNK N   1      20.450  10.856  13.506  0.00  0.00     0.153 C 
ENDBRANCH  22  25
ENDBRANCH  16  19
ENDBRANCH   8  11
ENDBRANCH   3   5
BRANCH   2  32
HETATM   32  C   UNK N   1       8.989  19.765  22.073  0.00  0.00     0.037 A 
HETATM   33  C   UNK N   1       8.427  20.382  20.940  0.00  0.00     0.060 A 
HETATM   34  C   UNK N   1       7.469  21.411  21.046  0.00  0.00     0.057 A 
HETATM   35  C   UNK N   1       7.095  21.848  22.344  0.00  0.00    -0.035 A 
HETATM   36  C   UNK N   1       7.654  21.235  23.475  0.00  0.00     0.011 A 
HETATM   37  C   UNK N   1       6.090  22.953  22.544  0.00  0.00     0.050 C 
HETATM   38  C   UNK N   1       8.584  20.206  23.348  0.00  0.00     0.030 A 
BRANCH  34  39
HETATM   39  N   UNK N   1       6.879  22.033  19.885  0.00  0.00    -0.191 N 
HETATM   40  C   UNK N   1       7.448  22.116  18.574  0.00  0.00     0.682 A 
HETATM   41  N   UNK N   1       6.734  22.718  17.590  0.00  0.00    -0.201 N 
HETATM   42  N   UNK N   1       8.635  21.536  18.268  0.00  0.00    -0.201 N 
HETATM   43  C   UNK N   1       7.178  22.757  16.309  0.00  0.00     0.119 A 
ATOM     44  HN  UNK N   1       5.840  23.152  17.818  1.00  0.00     0.183 HD
HETATM   45  C   UNK N   1       8.410  22.165  15.962  0.00  0.00     0.007 A 
HETATM   46  C   UNK N   1       9.135  21.556  17.006  0.00  0.00     0.119 A 
ATOM     47  HN  UNK N   1       9.165  21.071  19.005  1.00  0.00     0.183 HD
HETATM   48  H   UNK N   1       5.913  22.377  19.963  0.00  0.00     0.184 HD
BRANCH  45  49
HETATM   49  C   UNK N   1       8.917  22.168  14.538  0.00  0.00    -0.008 A 
HETATM   50  C   UNK N   1       9.333  20.974  13.906  0.00  0.00     0.015 A 
HETATM   51  C   UNK N   1       9.815  20.995  12.599  0.00  0.00     0.018 A 
HETATM   52  C   UNK N   1       9.880  22.201  11.909  0.00  0.00     0.087 A 
HETATM   53  N   UNK N   1       9.478  23.348  12.512  0.00  0.00    -0.375 N 
HETATM   54  C   UNK N   1       9.009  23.365  13.788  0.00  0.00     0.100 A 
ATOM     55  HN  UNK N   1       9.529  24.224  11.991  1.00  0.00     0.164 HD
ENDBRANCH  45  49
ENDBRANCH  34  39
ENDBRANCH   2  32
TORSDOF 7
ENDMDL
MODEL 2
REMARK VINA RESULT:      28.4      0.780      1.173
REMARK  7 active torsions:
REMARK  status: ('A' for Active; 'I' for Inactive)
REMARK    1  A    between atoms: N_3  and  C_23 
REMARK       I    between atoms: N_4  and  C_24 
REMARK    2  A    between atoms: N_5  and  C_25 
REMARK       I    between atoms: N_7  and  C_37 
REMARK    3  A    between atoms: N_7  and  C_38 
REMARK    4  A    between atoms: N_8  and  C_41 
REMARK       I    between atoms: N_8  and  C_45 
REMARK    5  A    between atoms: C_24  and  C_26 
REMARK    6  A    between atoms: C_36  and  C_37 
REMARK    7  A    between atoms: C_46  and  C_49 
ROOT
HETATM    1  O   UNK N   1      10.729  19.154  19.646  0.00  0.00    -0.267 OA
HETATM    2  N   UNK N   1      10.026  18.522  21.693  0.00  0.00    -0.323 N 
HETATM    3  C   UNK N   1      10.798  18.358  20.568  0.00  0.00     0.256 C 
HETATM    4  H   UNK N   1      10.178  17.878  22.474  0.00  0.00     0.169 HD
ENDROOT
BRANCH   3   5
HETATM    5  C   UNK N   1      11.764  17.209  20.446  0.00  0.00     0.032 A 
HETATM    6  C   UNK N   1      11.606  16.194  19.479  0.00  0.00     0.019 A 
HETATM    7  C   UNK N   1      12.523  15.157  19.376  0.00  0.00     0.030 A 
HETATM    8  C   UNK N   1      13.641  15.084  20.228  0.00  0.00     0.030 A 
HETATM    9  C   UNK N   1      13.811  16.101  21.192  0.00  0.00     0.030 A 
HETATM   10  C   UNK N   1      12.883  17.144  21.300  0.00  0.00     0.019 A 
BRANCH   8  11
HETATM   11  N   UNK N   1      14.595  14.013  20.082  0.00  0.00    -0.378 N 
HETATM   12  C   UNK N   1      14.188  12.623  20.288  0.00  0.00     0.143 C 
HETATM   13  C   UNK N   1      15.393  11.659  20.304  0.00  0.00     0.146 C 
HETATM   14  N   UNK N   1      16.320  11.898  19.197  0.00  0.00    -0.345 N 
HETATM   15  C   UNK N   1      16.176  13.143  18.445  0.00  0.00     0.146 C 
HETATM   16  C   UNK N   1      17.408  11.064  19.034  0.00  0.00     0.253 C 
HETATM   17  C   UNK N   1      15.883  14.267  19.437  0.00  0.00     0.143 C 
HETATM   18  O   UNK N   1      17.631  10.203  19.876  0.00  0.00    -0.267 OA
BRANCH  16  19
HETATM   19  C   UNK N   1      18.336  11.145  17.858  0.00  0.00     0.032 A 
HETATM   20  C   UNK N   1      19.547  11.846  17.964  0.00  0.00     0.019 A 
HETATM   21  C   UNK N   1      20.424  11.926  16.875  0.00  0.00     0.030 A 
HETATM   22  C   UNK N   1      20.115  11.288  15.651  0.00  0.00     0.030 A 
HETATM   23  C   UNK N   1      18.910  10.561  15.569  0.00  0.00     0.030 A 
HETATM   24  C   UNK N   1      18.046  10.483  16.654  0.00  0.00     0.019 A 
BRANCH  22  25
HETATM   25  N   UNK N   1      21.006  11.362  14.515  0.00  0.00    -0.378 N 
HETATM   26  C   UNK N   1      22.130  12.296  14.543  0.00  0.00     0.153 C 
HETATM   27  C   UNK N   1      22.531  12.686  13.118  0.00  0.00     0.291 C 
HETATM   28  N   UNK N   1      22.798  11.471  12.325  0.00  0.00     0.087 N 
HETATM   29  C   UNK N   1      21.573  10.658  12.239  0.00  0.00     0.291 C 
HETATM   30  C   UNK N   1      23.272  11.827  10.981  0.00  0.00     0.310 C 
HETATM   31  C   UNK N   1      21.158  10.204  13.638  0.00  0.00     0.153 C 
ENDBRANCH  22  25
ENDBRANCH  16  19
ENDBRANCH   8  11
ENDBRANCH   3   5
BRANCH   2  32
HETATM   32  C   UNK N   1       9.024  19.527  21.931  0.00  0.00     0.037 A 
HETATM   33  C   UNK N   1       8.544  20.239  20.817  0.00  0.00     0.060 A 
HETATM   34  C   UNK N   1       7.574  21.255  20.939  0.00  0.00     0.057 A 
HETATM   35  C   UNK N   1       7.101  21.578  22.238  0.00  0.00    -0.035 A 
HETATM   36  C   UNK N   1       7.579  20.870  23.351  0.00  0.00     0.011 A 
HETATM   37  C   UNK N   1       6.077  22.662  22.456  0.00  0.00     0.050 C 
HETATM   38  C   UNK N   1       8.523  19.856  23.206  0.00  0.00     0.030 A 
BRANCH  34  39
HETATM   39  N   UNK N   1       7.068  21.975  19.795  0.00  0.00    -0.191 N 
HETATM   40  C   UNK N   1       7.626  21.991  18.477  0.00  0.00     0.682 A 
HETATM   41  N   UNK N   1       6.997  22.706  17.511  0.00  0.00    -0.201 N 
HETATM   42  N   UNK N   1       8.709  21.245  18.145  0.00  0.00    -0.201 N 
HETATM   43  C   UNK N   1       7.425  22.698  16.223  0.00  0.00     0.119 A 
ATOM     44  HN  UNK N   1       6.180  23.266  17.758  1.00  0.00     0.183 HD
HETATM   45  C   UNK N   1       8.550  21.934  15.851  0.00  0.00     0.007 A 
HETATM   46  C   UNK N   1       9.190  21.209  16.876  0.00  0.00     0.119 A 
ATOM     47  HN  UNK N   1       9.174  20.696  18.868  1.00  0.00     0.183 HD
HETATM   48  H   UNK N   1       6.165  22.458  19.891  0.00  0.00     0.184 HD
BRANCH  45  49
HETATM   49  C   UNK N   1       9.033  21.882  14.419  0.00  0.00    -0.008 A 
HETATM   50  C   UNK N   1       9.556  23.030  13.782  0.00  0.00     0.015 A 
HETATM   51  C   UNK N   1       9.981  22.971  12.456  0.00  0.00     0.018 A 
HETATM   52  C   UNK N   1       9.894  21.772  11.758  0.00  0.00     0.087 A 
HETATM   53  N   UNK N   1       9.395  20.667  12.368  0.00  0.00    -0.375 N 
HETATM   54  C   UNK N   1       8.965  20.691  13.658  0.00  0.00     0.100 A 
ATOM     55  HN  UNK N   1       9.341  19.794  11.844  1.00  0.00     0.164 HD
ENDBRANCH  45  49
ENDBRANCH  34  39
ENDBRANCH   2  32
TORSDOF 7
ENDMDL
