MODEL 1
REMARK VINA RESULT:      -7.0      0.000      0.000
REMARK  2 active torsions:
REMARK  status: ('A' for Active; 'I' for Inactive)
REMARK    1  A    between atoms: N_1  and  C_8 
REMARK    2  A    between atoms: C_8  and  C_10 
ROOT
HETATM    1  N   UNK N   1      19.146  13.921  20.048  0.00  0.00    -0.191 NA
HETATM    2  C   UNK N   1      18.422  12.037  17.166  0.00  0.00    -0.009 A 
HETATM    3  C   UNK N   1      19.402  12.925  17.667  0.00  0.00     0.052 A 
HETATM    4  C   UNK N   1      18.572  11.501  15.879  0.00  0.00     0.010 A 
HETATM    5  C   UNK N   1      20.504  13.253  16.881  0.00  0.00     0.023 A 
HETATM    6  C   UNK N   1      19.673  11.844  15.101  0.00  0.00     0.001 A 
HETATM    7  C   UNK N   1      20.639  12.717  15.602  0.00  0.00     0.002 A 
HETATM    8  C   UNK N   1      19.291  13.495  18.983  0.00  0.00     0.100 C 
ENDROOT
BRANCH   2   9
HETATM    9  C   UNK N   1      17.217  11.664  17.971  0.00  0.00     0.312 C 
BRANCH   9  10
HETATM   10  N   UNK N   1      16.332  12.833  18.096  0.00  0.00     0.096 N 
HETATM   11  C   UNK N   1      15.504  12.988  16.882  0.00  0.00     0.303 C 
HETATM   12  C   UNK N   1      14.581  14.194  17.012  0.00  0.00     0.302 C 
HETATM   13  N   UNK N   1      13.729  14.061  18.202  0.00  0.00     0.087 N 
HETATM   14  C   UNK N   1      14.553  13.913  19.412  0.00  0.00     0.302 C 
HETATM   15  C   UNK N   1      12.845  15.230  18.326  0.00  0.00     0.310 C 
HETATM   16  C   UNK N   1      15.477  12.701  19.284  0.00  0.00     0.303 C 
ENDBRANCH   9  10
ENDBRANCH   2   9
TORSDOF 2
ENDMDL
MODEL 2
REMARK VINA RESULT:      -6.3      2.020      5.417
REMARK  2 active torsions:
REMARK  status: ('A' for Active; 'I' for Inactive)
REMARK    1  A    between atoms: N_1  and  C_8 
REMARK    2  A    between atoms: C_8  and  C_10 
ROOT
HETATM    1  N   UNK N   1      15.592  15.086  20.957  0.00  0.00    -0.191 NA
HETATM    2  C   UNK N   1      16.471  12.185  19.171  0.00  0.00    -0.009 A 
HETATM    3  C   UNK N   1      15.380  12.735  19.883  0.00  0.00     0.052 A 
HETATM    4  C   UNK N   1      16.345  10.915  18.590  0.00  0.00     0.010 A 
HETATM    5  C   UNK N   1      14.194  12.014  19.994  0.00  0.00     0.023 A 
HETATM    6  C   UNK N   1      15.157  10.202  18.718  0.00  0.00     0.001 A 
HETATM    7  C   UNK N   1      14.082  10.751  19.416  0.00  0.00     0.002 A 
HETATM    8  C   UNK N   1      15.464  14.036  20.491  0.00  0.00     0.100 C 
ENDROOT
BRANCH   2   9
HETATM    9  C   UNK N   1      17.768  12.919  19.034  0.00  0.00     0.312 C 
BRANCH   9  10
HETATM   10  N   UNK N   1      18.562  12.311  17.955  0.00  0.00     0.096 N 
HETATM   11  C   UNK N   1      17.848  12.413  16.666  0.00  0.00     0.303 C 
HETATM   12  C   UNK N   1      18.672  11.791  15.545  0.00  0.00     0.302 C 
HETATM   13  N   UNK N   1      19.988  12.439  15.456  0.00  0.00     0.087 N 
HETATM   14  C   UNK N   1      20.703  12.332  16.738  0.00  0.00     0.302 C 
HETATM   15  C   UNK N   1      20.781  11.830  14.377  0.00  0.00     0.310 C 
HETATM   16  C   UNK N   1      19.879  12.959  17.863  0.00  0.00     0.303 C 
ENDBRANCH   9  10
ENDBRANCH   2   9
TORSDOF 2
ENDMDL
MODEL 3
REMARK VINA RESULT:      -6.2      7.893     10.278
REMARK  2 active torsions:
REMARK  status: ('A' for Active; 'I' for Inactive)
REMARK    1  A    between atoms: N_1  and  C_8 
REMARK    2  A    between atoms: C_8  and  C_10 
ROOT
HETATM    1  N   UNK N   1      11.884  16.445  16.988  0.00  0.00    -0.191 NA
HETATM    2  C   UNK N   1       9.159  18.511  17.814  0.00  0.00    -0.009 A 
HETATM    3  C   UNK N   1      10.153  18.369  16.819  0.00  0.00     0.052 A 
HETATM    4  C   UNK N   1       8.225  19.553  17.711  0.00  0.00     0.010 A 
HETATM    5  C   UNK N   1      10.192  19.259  15.748  0.00  0.00     0.023 A 
HETATM    6  C   UNK N   1       8.281  20.440  16.641  0.00  0.00     0.001 A 
HETATM    7  C   UNK N   1       9.261  20.292  15.660  0.00  0.00     0.002 A 
HETATM    8  C   UNK N   1      11.128  17.314  16.882  0.00  0.00     0.100 C 
ENDROOT
BRANCH   2   9
HETATM    9  C   UNK N   1       9.085  17.585  18.987  0.00  0.00     0.312 C 
BRANCH   9  10
HETATM   10  N   UNK N   1       9.364  18.337  20.221  0.00  0.00     0.096 N 
HETATM   11  C   UNK N   1       8.337  18.051  21.245  0.00  0.00     0.303 C 
HETATM   12  C   UNK N   1       8.628  18.822  22.526  0.00  0.00     0.302 C 
HETATM   13  N   UNK N   1       9.966  18.488  23.034  0.00  0.00     0.087 N 
HETATM   14  C   UNK N   1      10.990  18.778  22.017  0.00  0.00     0.302 C 
HETATM   15  C   UNK N   1      10.243  19.239  24.267  0.00  0.00     0.310 C 
HETATM   16  C   UNK N   1      10.701  18.002  20.732  0.00  0.00     0.303 C 
ENDBRANCH   9  10
ENDBRANCH   2   9
TORSDOF 2
ENDMDL
MODEL 4
REMARK VINA RESULT:      -6.2      1.793      5.415
REMARK  2 active torsions:
REMARK  status: ('A' for Active; 'I' for Inactive)
REMARK    1  A    between atoms: N_1  and  C_8 
REMARK    2  A    between atoms: C_8  and  C_10 
ROOT
HETATM    1  N   UNK N   1      17.571  14.217  21.280  0.00  0.00    -0.191 NA
HETATM    2  C   UNK N   1      16.344  12.844  18.282  0.00  0.00    -0.009 A 
HETATM    3  C   UNK N   1      15.980  13.778  19.280  0.00  0.00     0.052 A 
HETATM    4  C   UNK N   1      15.479  12.617  17.202  0.00  0.00     0.010 A 
HETATM    5  C   UNK N   1      14.772  14.462  19.178  0.00  0.00     0.023 A 
HETATM    6  C   UNK N   1      14.270  13.301  17.117  0.00  0.00     0.001 A 
HETATM    7  C   UNK N   1      13.919  14.225  18.102  0.00  0.00     0.002 A 
HETATM    8  C   UNK N   1      16.838  14.045  20.402  0.00  0.00     0.100 C 
ENDROOT
BRANCH   2   9
HETATM    9  C   UNK N   1      17.628  12.078  18.356  0.00  0.00     0.312 C 
BRANCH   9  10
HETATM   10  N   UNK N   1      18.472  12.426  17.202  0.00  0.00     0.096 N 
HETATM   11  C   UNK N   1      19.825  12.818  17.649  0.00  0.00     0.303 C 
HETATM   12  C   UNK N   1      20.703  13.170  16.455  0.00  0.00     0.302 C 
HETATM   13  N   UNK N   1      20.778  12.038  15.521  0.00  0.00     0.087 N 
HETATM   14  C   UNK N   1      19.432  11.652  15.071  0.00  0.00     0.302 C 
HETATM   15  C   UNK N   1      21.622  12.387  14.368  0.00  0.00     0.310 C 
HETATM   16  C   UNK N   1      18.550  11.294  16.267  0.00  0.00     0.303 C 
ENDBRANCH   9  10
ENDBRANCH   2   9
TORSDOF 2
ENDMDL
MODEL 5
REMARK VINA RESULT:      -5.8      9.091     11.036
REMARK  2 active torsions:
REMARK  status: ('A' for Active; 'I' for Inactive)
REMARK    1  A    between atoms: N_1  and  C_8 
REMARK    2  A    between atoms: C_8  and  C_10 
ROOT
HETATM    1  N   UNK N   1       7.159  21.872  17.030  0.00  0.00    -0.191 NA
HETATM    2  C   UNK N   1       9.189  19.026  17.427  0.00  0.00    -0.009 A 
HETATM    3  C   UNK N   1       8.987  20.101  16.531  0.00  0.00     0.052 A 
HETATM    4  C   UNK N   1      10.183  18.076  17.151  0.00  0.00     0.010 A 
HETATM    5  C   UNK N   1       9.777  20.207  15.390  0.00  0.00     0.023 A 
HETATM    6  C   UNK N   1      10.960  18.190  16.002  0.00  0.00     0.001 A 
HETATM    7  C   UNK N   1      10.759  19.255  15.124  0.00  0.00     0.002 A 
HETATM    8  C   UNK N   1       7.982  21.100  16.778  0.00  0.00     0.100 C 
ENDROOT
BRANCH   2   9
HETATM    9  C   UNK N   1       8.357  18.866  18.661  0.00  0.00     0.312 C 
BRANCH   9  10
HETATM   10  N   UNK N   1       9.092  19.397  19.819  0.00  0.00     0.096 N 
HETATM   11  C   UNK N   1       8.320  20.473  20.474  0.00  0.00     0.303 C 
HETATM   12  C   UNK N   1       9.077  21.019  21.679  0.00  0.00     0.302 C 
HETATM   13  N   UNK N   1       9.367  19.941  22.634  0.00  0.00     0.087 N 
HETATM   14  C   UNK N   1      10.141  18.872  21.984  0.00  0.00     0.302 C 
HETATM   15  C   UNK N   1      10.102  20.473  23.791  0.00  0.00     0.310 C 
HETATM   16  C   UNK N   1       9.382  18.320  20.777  0.00  0.00     0.303 C 
ENDBRANCH   9  10
ENDBRANCH   2   9
TORSDOF 2
ENDMDL
MODEL 6
REMARK VINA RESULT:      -5.7      2.391      5.884
REMARK  2 active torsions:
REMARK  status: ('A' for Active; 'I' for Inactive)
REMARK    1  A    between atoms: N_1  and  C_8 
REMARK    2  A    between atoms: C_8  and  C_10 
ROOT
HETATM    1  N   UNK N   1      14.632  11.725  17.849  0.00  0.00    -0.191 NA
HETATM    2  C   UNK N   1      18.040  12.592  17.750  0.00  0.00    -0.009 A 
HETATM    3  C   UNK N   1      16.921  12.678  18.610  0.00  0.00     0.052 A 
HETATM    4  C   UNK N   1      19.275  13.106  18.172  0.00  0.00     0.010 A 
HETATM    5  C   UNK N   1      17.056  13.268  19.864  0.00  0.00     0.023 A 
HETATM    6  C   UNK N   1      19.394  13.701  19.424  0.00  0.00     0.001 A 
HETATM    7  C   UNK N   1      18.287  13.779  20.270  0.00  0.00     0.002 A 
HETATM    8  C   UNK N   1      15.637  12.160  18.219  0.00  0.00     0.100 C 
ENDROOT
BRANCH   2   9
HETATM    9  C   UNK N   1      17.939  11.976  16.390  0.00  0.00     0.312 C 
BRANCH   9  10
HETATM   10  N   UNK N   1      19.284  11.617  15.914  0.00  0.00     0.096 N 
HETATM   11  C   UNK N   1      19.200  10.839  14.661  0.00  0.00     0.303 C 
HETATM   12  C   UNK N   1      20.593  10.473  14.162  0.00  0.00     0.302 C 
HETATM   13  N   UNK N   1      21.401  11.685  13.962  0.00  0.00     0.087 N 
HETATM   14  C   UNK N   1      21.490  12.457  15.211  0.00  0.00     0.302 C 
HETATM   15  C   UNK N   1      22.745  11.325  13.486  0.00  0.00     0.310 C 
HETATM   16  C   UNK N   1      20.093  12.828  15.711  0.00  0.00     0.303 C 
ENDBRANCH   9  10
ENDBRANCH   2   9
TORSDOF 2
ENDMDL
MODEL 7
REMARK VINA RESULT:      -5.6      8.455     12.283
REMARK  2 active torsions:
REMARK  status: ('A' for Active; 'I' for Inactive)
REMARK    1  A    between atoms: N_1  and  C_8 
REMARK    2  A    between atoms: C_8  and  C_10 
ROOT
HETATM    1  N   UNK N   1       6.786  22.141  16.765  0.00  0.00    -0.191 NA
HETATM    2  C   UNK N   1       8.287  20.651  19.576  0.00  0.00    -0.009 A 
HETATM    3  C   UNK N   1       7.068  21.253  19.185  0.00  0.00     0.052 A 
HETATM    4  C   UNK N   1       8.428  20.170  20.886  0.00  0.00     0.010 A 
HETATM    5  C   UNK N   1       6.024  21.357  20.100  0.00  0.00     0.023 A 
HETATM    6  C   UNK N   1       7.380  20.289  21.793  0.00  0.00     0.001 A 
HETATM    7  C   UNK N   1       6.179  20.879  21.400  0.00  0.00     0.002 A 
HETATM    8  C   UNK N   1       6.878  21.756  17.851  0.00  0.00     0.100 C 
ENDROOT
BRANCH   2   9
HETATM    9  C   UNK N   1       9.440  20.527  18.630  0.00  0.00     0.312 C 
BRANCH   9  10
HETATM   10  N   UNK N   1       9.287  19.300  17.831  0.00  0.00     0.096 N 
HETATM   11  C   UNK N   1       9.694  19.539  16.431  0.00  0.00     0.303 C 
HETATM   12  C   UNK N   1       9.544  18.268  15.605  0.00  0.00     0.302 C 
HETATM   13  N   UNK N   1      10.336  17.178  16.191  0.00  0.00     0.087 N 
HETATM   14  C   UNK N   1       9.927  16.935  17.583  0.00  0.00     0.302 C 
HETATM   15  C   UNK N   1      10.182  15.953  15.392  0.00  0.00     0.310 C 
HETATM   16  C   UNK N   1      10.081  18.209  18.415  0.00  0.00     0.303 C 
ENDBRANCH   9  10
ENDBRANCH   2   9
TORSDOF 2
ENDMDL
MODEL 8
REMARK VINA RESULT:      -5.6      8.413     10.437
REMARK  2 active torsions:
REMARK  status: ('A' for Active; 'I' for Inactive)
REMARK    1  A    between atoms: N_1  and  C_8 
REMARK    2  A    between atoms: C_8  and  C_10 
ROOT
HETATM    1  N   UNK N   1       8.788  21.486  16.424  0.00  0.00    -0.191 NA
HETATM    2  C   UNK N   1       9.378  18.214  17.575  0.00  0.00    -0.009 A 
HETATM    3  C   UNK N   1       9.764  19.086  16.530  0.00  0.00     0.052 A 
HETATM    4  C   UNK N   1       9.914  16.920  17.626  0.00  0.00     0.010 A 
HETATM    5  C   UNK N   1      10.673  18.652  15.569  0.00  0.00     0.023 A 
HETATM    6  C   UNK N   1      10.815  16.496  16.654  0.00  0.00     0.001 A 
HETATM    7  C   UNK N   1      11.196  17.361  15.628  0.00  0.00     0.002 A 
HETATM    8  C   UNK N   1       9.242  20.423  16.441  0.00  0.00     0.100 C 
ENDROOT
BRANCH   2   9
HETATM    9  C   UNK N   1       8.396  18.634  18.624  0.00  0.00     0.312 C 
BRANCH   9  10
HETATM   10  N   UNK N   1       9.112  19.297  19.726  0.00  0.00     0.096 N 
HETATM   11  C   UNK N   1       8.392  20.515  20.152  0.00  0.00     0.303 C 
HETATM   12  C   UNK N   1       9.127  21.198  21.299  0.00  0.00     0.302 C 
HETATM   13  N   UNK N   1       9.287  20.273  22.430  0.00  0.00     0.087 N 
HETATM   14  C   UNK N   1      10.009  19.063  22.007  0.00  0.00     0.302 C 
HETATM   15  C   UNK N   1      10.002  20.936  23.530  0.00  0.00     0.310 C 
HETATM   16  C   UNK N   1       9.270  18.374  20.859  0.00  0.00     0.303 C 
ENDBRANCH   9  10
ENDBRANCH   2   9
TORSDOF 2
ENDMDL
MODEL 9
REMARK VINA RESULT:      -5.5      8.895     11.786
REMARK  2 active torsions:
REMARK  status: ('A' for Active; 'I' for Inactive)
REMARK    1  A    between atoms: N_1  and  C_8 
REMARK    2  A    between atoms: C_8  and  C_10 
ROOT
HETATM    1  N   UNK N   1      10.194  18.694  21.791  0.00  0.00    -0.191 NA
HETATM    2  C   UNK N   1       8.310  20.620  19.530  0.00  0.00    -0.009 A 
HETATM    3  C   UNK N   1       8.223  20.081  20.834  0.00  0.00     0.052 A 
HETATM    4  C   UNK N   1       7.240  21.372  19.023  0.00  0.00     0.010 A 
HETATM    5  C   UNK N   1       7.082  20.304  21.600  0.00  0.00     0.023 A 
HETATM    6  C   UNK N   1       6.102  21.580  19.796  0.00  0.00     0.001 A 
HETATM    7  C   UNK N   1       6.024  21.050  21.083  0.00  0.00     0.002 A 
HETATM    8  C   UNK N   1       9.298  19.307  21.395  0.00  0.00     0.100 C 
ENDROOT
BRANCH   2   9
HETATM    9  C   UNK N   1       9.512  20.396  18.667  0.00  0.00     0.312 C 
BRANCH   9  10
HETATM   10  N   UNK N   1       9.237  19.304  17.720  0.00  0.00     0.096 N 
HETATM   11  C   UNK N   1       9.672  19.678  16.358  0.00  0.00     0.303 C 
HETATM   12  C   UNK N   1       9.396  18.545  15.377  0.00  0.00     0.302 C 
HETATM   13  N   UNK N   1      10.070  17.313  15.812  0.00  0.00     0.087 N 
HETATM   14  C   UNK N   1       9.632  16.938  17.166  0.00  0.00     0.302 C 
HETATM   15  C   UNK N   1       9.794  16.223  14.865  0.00  0.00     0.310 C 
HETATM   16  C   UNK N   1       9.912  18.072  18.152  0.00  0.00     0.303 C 
ENDBRANCH   9  10
ENDBRANCH   2   9
TORSDOF 2
ENDMDL
