MODEL 1
REMARK VINA RESULT:      -7.0      0.000      0.000
REMARK  2 active torsions:
REMARK  status: ('A' for Active; 'I' for Inactive)
REMARK    1  A    between atoms: N_3  and  C_9 
REMARK    2  A    between atoms: N_5  and  C_11 
REMARK       I    between atoms: N_6  and  C_15 
REMARK       I    between atoms: N_7  and  C_15 
ROOT
HETATM    1  C   UNK N   1      19.162  12.580  17.259  0.00  0.00    -0.032 A 
HETATM    2  C   UNK N   1      17.799  12.358  16.987  0.00  0.00     0.055 A 
HETATM    3  C   UNK N   1      20.123  12.244  16.293  0.00  0.00     0.045 A 
HETATM    4  C   UNK N   1      19.738  11.689  15.060  0.00  0.00     0.103 A 
HETATM    5  C   UNK N   1      17.413  11.788  15.768  0.00  0.00     0.033 A 
HETATM    6  C   UNK N   1      18.373  11.458  14.810  0.00  0.00     0.038 A 
HETATM    7  C   UNK N   1      19.597  13.182  18.566  0.00  0.00     0.050 C 
ENDROOT
BRANCH   2   8
HETATM    8  N   UNK N   1      16.806  12.715  17.936  0.00  0.00    -0.192 N 
HETATM    9  C   UNK N   1      16.277  11.862  18.753  0.00  0.00     0.669 C 
HETATM   10  N   UNK N   1      15.289  12.300  19.668  0.00  0.00    -0.235 N 
HETATM   11  N   UNK N   1      16.662  10.490  18.751  0.00  0.00    -0.235 N 
HETATM   12  H   UNK N   1      14.993  13.287  19.687  0.00  0.00     0.174 HD
HETATM   13  H   UNK N   1      14.859  11.631  20.322  0.00  0.00     0.174 HD
HETATM   14  H   UNK N   1      17.373  10.125  18.103  0.00  0.00     0.174 HD
HETATM   15  H   UNK N   1      16.221   9.835  19.411  0.00  0.00     0.174 HD
ATOM     16  HN  UNK N   1      16.495  13.685  17.974  1.00  0.00     0.184 HD
ENDBRANCH   2   8
BRANCH   4  17
HETATM   17  N   UNK N   1      20.718  11.371  14.071  0.00  0.00    -0.116 N 
HETATM   18  O   UNK N   1      22.000  11.453  14.353  0.00  0.00    -0.532 OA
HETATM   19  O   UNK N   1      20.381  11.009  12.982  0.00  0.00    -0.532 OA
ENDBRANCH   4  17
TORSDOF 2
ENDMDL
MODEL 2
REMARK VINA RESULT:      -6.9      1.491      1.986
REMARK  2 active torsions:
REMARK  status: ('A' for Active; 'I' for Inactive)
REMARK    1  A    between atoms: N_3  and  C_9 
REMARK    2  A    between atoms: N_5  and  C_11 
REMARK       I    between atoms: N_6  and  C_15 
REMARK       I    between atoms: N_7  and  C_15 
ROOT
HETATM    1  C   UNK N   1      19.870  12.546  16.844  0.00  0.00    -0.032 A 
HETATM    2  C   UNK N   1      18.745  11.842  16.372  0.00  0.00     0.055 A 
HETATM    3  C   UNK N   1      21.024  12.617  16.050  0.00  0.00     0.045 A 
HETATM    4  C   UNK N   1      21.069  11.993  14.790  0.00  0.00     0.103 A 
HETATM    5  C   UNK N   1      18.793  11.203  15.128  0.00  0.00     0.033 A 
HETATM    6  C   UNK N   1      19.943  11.279  14.340  0.00  0.00     0.038 A 
HETATM    7  C   UNK N   1      19.841  13.231  18.182  0.00  0.00     0.050 C 
ENDROOT
BRANCH   2   8
HETATM    8  N   UNK N   1      17.557  11.779  17.144  0.00  0.00    -0.192 N 
HETATM    9  C   UNK N   1      16.426  12.257  16.734  0.00  0.00     0.669 C 
HETATM   10  N   UNK N   1      15.287  12.156  17.567  0.00  0.00    -0.235 N 
HETATM   11  N   UNK N   1      16.302  12.889  15.462  0.00  0.00    -0.235 N 
HETATM   12  H   UNK N   1      15.352  11.705  18.492  0.00  0.00     0.174 HD
HETATM   13  H   UNK N   1      14.383  12.534  17.253  0.00  0.00     0.174 HD
HETATM   14  H   UNK N   1      17.103  12.988  14.822  0.00  0.00     0.174 HD
HETATM   15  H   UNK N   1      15.390  13.262  15.164  0.00  0.00     0.174 HD
ATOM     16  HN  UNK N   1      17.595  11.338  18.063  1.00  0.00     0.184 HD
ENDBRANCH   2   8
BRANCH   4  17
HETATM   17  N   UNK N   1      22.237  12.088  13.975  0.00  0.00    -0.116 N 
HETATM   18  O   UNK N   1      22.463  11.203  13.029  0.00  0.00    -0.532 OA
HETATM   19  O   UNK N   1      23.012  12.985  14.133  0.00  0.00    -0.532 OA
ENDBRANCH   4  17
TORSDOF 2
ENDMDL
MODEL 3
REMARK VINA RESULT:      -6.6      2.140      2.887
REMARK  2 active torsions:
REMARK  status: ('A' for Active; 'I' for Inactive)
REMARK    1  A    between atoms: N_3  and  C_9 
REMARK    2  A    between atoms: N_5  and  C_11 
REMARK       I    between atoms: N_6  and  C_15 
REMARK       I    between atoms: N_7  and  C_15 
ROOT
HETATM    1  C   UNK N   1      17.022  12.589  18.340  0.00  0.00    -0.032 A 
HETATM    2  C   UNK N   1      15.802  12.878  17.698  0.00  0.00     0.055 A 
HETATM    3  C   UNK N   1      18.139  12.231  17.572  0.00  0.00     0.045 A 
HETATM    4  C   UNK N   1      18.054  12.157  16.170  0.00  0.00     0.103 A 
HETATM    5  C   UNK N   1      15.708  12.786  16.305  0.00  0.00     0.033 A 
HETATM    6  C   UNK N   1      16.824  12.432  15.544  0.00  0.00     0.038 A 
HETATM    7  C   UNK N   1      17.141  12.672  19.837  0.00  0.00     0.050 C 
ENDROOT
BRANCH   2   8
HETATM    8  N   UNK N   1      14.665  13.269  18.451  0.00  0.00    -0.192 N 
HETATM    9  C   UNK N   1      14.079  14.413  18.295  0.00  0.00     0.669 C 
HETATM   10  N   UNK N   1      12.950  14.727  19.089  0.00  0.00    -0.235 N 
HETATM   11  N   UNK N   1      14.547  15.366  17.344  0.00  0.00    -0.235 N 
HETATM   12  H   UNK N   1      12.595  14.055  19.784  0.00  0.00     0.174 HD
HETATM   13  H   UNK N   1      12.477  15.634  18.976  0.00  0.00     0.174 HD
HETATM   14  H   UNK N   1      15.365  15.183  16.747  0.00  0.00     0.174 HD
HETATM   15  H   UNK N   1      14.062  16.268  17.245  0.00  0.00     0.174 HD
ATOM     16  HN  UNK N   1      14.294  12.622  19.146  1.00  0.00     0.184 HD
ENDBRANCH   2   8
BRANCH   4  17
HETATM   17  N   UNK N   1      19.200  11.815  15.391  0.00  0.00    -0.116 N 
HETATM   18  O   UNK N   1      19.088  11.006  14.360  0.00  0.00    -0.532 OA
HETATM   19  O   UNK N   1      20.270  12.277  15.657  0.00  0.00    -0.532 OA
ENDBRANCH   4  17
TORSDOF 2
ENDMDL
MODEL 4
REMARK VINA RESULT:      -6.4      1.842      2.285
REMARK  2 active torsions:
REMARK  status: ('A' for Active; 'I' for Inactive)
REMARK    1  A    between atoms: N_3  and  C_9 
REMARK    2  A    between atoms: N_5  and  C_11 
REMARK       I    between atoms: N_6  and  C_15 
REMARK       I    between atoms: N_7  and  C_15 
ROOT
HETATM    1  C   UNK N   1      17.552  13.073  18.987  0.00  0.00    -0.032 A 
HETATM    2  C   UNK N   1      16.296  12.837  18.395  0.00  0.00     0.055 A 
HETATM    3  C   UNK N   1      18.720  12.819  18.253  0.00  0.00     0.045 A 
HETATM    4  C   UNK N   1      18.650  12.332  16.936  0.00  0.00     0.103 A 
HETATM    5  C   UNK N   1      16.222  12.334  17.091  0.00  0.00     0.033 A 
HETATM    6  C   UNK N   1      17.388  12.086  16.364  0.00  0.00     0.038 A 
HETATM    7  C   UNK N   1      17.652  13.604  20.390  0.00  0.00     0.050 C 
ENDROOT
BRANCH   2   8
HETATM    8  N   UNK N   1      15.099  13.112  19.106  0.00  0.00    -0.192 N 
HETATM    9  C   UNK N   1      14.367  12.185  19.635  0.00  0.00     0.669 C 
HETATM   10  N   UNK N   1      13.185  12.545  20.325  0.00  0.00    -0.235 N 
HETATM   11  N   UNK N   1      14.721  10.808  19.532  0.00  0.00    -0.235 N 
HETATM   12  H   UNK N   1      12.908  13.533  20.410  0.00  0.00     0.174 HD
HETATM   13  H   UNK N   1      12.594  11.816  20.748  0.00  0.00     0.174 HD
HETATM   14  H   UNK N   1      15.569  10.498  19.037  0.00  0.00     0.174 HD
HETATM   15  H   UNK N   1      14.117  10.093  19.961  0.00  0.00     0.174 HD
ATOM     16  HN  UNK N   1      14.803  14.083  19.204  1.00  0.00     0.184 HD
ENDBRANCH   2   8
BRANCH   4  17
HETATM   17  N   UNK N   1      19.841  12.098  16.185  0.00  0.00    -0.116 N 
HETATM   18  O   UNK N   1      20.970  12.679  16.528  0.00  0.00    -0.532 OA
HETATM   19  O   UNK N   1      19.828  11.356  15.248  0.00  0.00    -0.532 OA
ENDBRANCH   4  17
TORSDOF 2
ENDMDL
MODEL 5
REMARK VINA RESULT:      -6.4      1.996      3.099
REMARK  2 active torsions:
REMARK  status: ('A' for Active; 'I' for Inactive)
REMARK    1  A    between atoms: N_3  and  C_9 
REMARK    2  A    between atoms: N_5  and  C_11 
REMARK       I    between atoms: N_6  and  C_15 
REMARK       I    between atoms: N_7  and  C_15 
ROOT
HETATM    1  C   UNK N   1      15.542  12.955  17.145  0.00  0.00    -0.032 A 
HETATM    2  C   UNK N   1      15.894  12.744  18.492  0.00  0.00     0.055 A 
HETATM    3  C   UNK N   1      16.479  12.686  16.135  0.00  0.00     0.045 A 
HETATM    4  C   UNK N   1      17.763  12.209  16.455  0.00  0.00     0.103 A 
HETATM    5  C   UNK N   1      17.177  12.289  18.815  0.00  0.00     0.033 A 
HETATM    6  C   UNK N   1      18.105  12.020  17.807  0.00  0.00     0.038 A 
HETATM    7  C   UNK N   1      14.172  13.453  16.777  0.00  0.00     0.050 C 
ENDROOT
BRANCH   2   8
HETATM    8  N   UNK N   1      14.956  12.982  19.529  0.00  0.00    -0.192 N 
HETATM    9  C   UNK N   1      14.156  12.068  19.977  0.00  0.00     0.669 C 
HETATM   10  N   UNK N   1      13.247  12.389  21.012  0.00  0.00    -0.235 N 
HETATM   11  N   UNK N   1      14.167  10.745  19.446  0.00  0.00    -0.235 N 
HETATM   12  H   UNK N   1      13.220  13.339  21.410  0.00  0.00     0.174 HD
HETATM   13  H   UNK N   1      12.605  11.671  21.375  0.00  0.00     0.174 HD
HETATM   14  H   UNK N   1      14.808  10.465  18.691  0.00  0.00     0.174 HD
HETATM   15  H   UNK N   1      13.517  10.040  19.821  0.00  0.00     0.174 HD
ATOM     16  HN  UNK N   1      14.909  13.914  19.939  1.00  0.00     0.184 HD
ENDBRANCH   2   8
BRANCH   4  17
HETATM   17  N   UNK N   1      18.704  11.914  15.424  0.00  0.00    -0.116 N 
HETATM   18  O   UNK N   1      19.911  12.437  15.454  0.00  0.00    -0.532 OA
HETATM   19  O   UNK N   1      18.411  11.174  14.532  0.00  0.00    -0.532 OA
ENDBRANCH   4  17
TORSDOF 2
ENDMDL
MODEL 6
REMARK VINA RESULT:      -6.3      0.828      2.046
REMARK  2 active torsions:
REMARK  status: ('A' for Active; 'I' for Inactive)
REMARK    1  A    between atoms: N_3  and  C_9 
REMARK    2  A    between atoms: N_5  and  C_11 
REMARK       I    between atoms: N_6  and  C_15 
REMARK       I    between atoms: N_7  and  C_15 
ROOT
HETATM    1  C   UNK N   1      17.906  12.390  16.146  0.00  0.00    -0.032 A 
HETATM    2  C   UNK N   1      18.178  12.656  17.502  0.00  0.00     0.055 A 
HETATM    3  C   UNK N   1      18.968  12.129  15.266  0.00  0.00     0.045 A 
HETATM    4  C   UNK N   1      20.297  12.131  15.724  0.00  0.00     0.103 A 
HETATM    5  C   UNK N   1      19.502  12.677  17.957  0.00  0.00     0.033 A 
HETATM    6  C   UNK N   1      20.554  12.414  17.078  0.00  0.00     0.038 A 
HETATM    7  C   UNK N   1      16.492  12.372  15.636  0.00  0.00     0.050 C 
ENDROOT
BRANCH   2   8
HETATM    8  N   UNK N   1      17.121  12.895  18.417  0.00  0.00    -0.192 N 
HETATM    9  C   UNK N   1      16.492  11.943  19.028  0.00  0.00     0.669 C 
HETATM   10  N   UNK N   1      15.446  12.268  19.925  0.00  0.00    -0.235 N 
HETATM   11  N   UNK N   1      16.825  10.574  18.815  0.00  0.00    -0.235 N 
HETATM   12  H   UNK N   1      15.186  13.251  20.093  0.00  0.00     0.174 HD
HETATM   13  H   UNK N   1      14.936  11.520  20.415  0.00  0.00     0.174 HD
HETATM   14  H   UNK N   1      17.576  10.289  18.171  0.00  0.00     0.174 HD
HETATM   15  H   UNK N   1      16.304   9.839  19.314  0.00  0.00     0.174 HD
ATOM     16  HN  UNK N   1      16.845  13.859  18.601  1.00  0.00     0.184 HD
ENDBRANCH   2   8
BRANCH   4  17
HETATM   17  N   UNK N   1      21.372  11.841  14.831  0.00  0.00    -0.116 N 
HETATM   18  O   UNK N   1      21.317  10.791  14.041  0.00  0.00    -0.532 OA
HETATM   19  O   UNK N   1      22.325  12.562  14.778  0.00  0.00    -0.532 OA
ENDBRANCH   4  17
TORSDOF 2
ENDMDL
MODEL 7
REMARK VINA RESULT:      -6.3      3.284      5.192
REMARK  2 active torsions:
REMARK  status: ('A' for Active; 'I' for Inactive)
REMARK    1  A    between atoms: N_3  and  C_9 
REMARK    2  A    between atoms: N_5  and  C_11 
REMARK       I    between atoms: N_6  and  C_15 
REMARK       I    between atoms: N_7  and  C_15 
ROOT
HETATM    1  C   UNK N   1      19.206  12.425  17.162  0.00  0.00    -0.032 A 
HETATM    2  C   UNK N   1      18.935  12.277  15.788  0.00  0.00     0.055 A 
HETATM    3  C   UNK N   1      18.141  12.527  18.069  0.00  0.00     0.045 A 
HETATM    4  C   UNK N   1      16.809  12.483  17.621  0.00  0.00     0.103 A 
HETATM    5  C   UNK N   1      17.611  12.253  15.336  0.00  0.00     0.033 A 
HETATM    6  C   UNK N   1      16.554  12.352  16.243  0.00  0.00     0.038 A 
HETATM    7  C   UNK N   1      20.622  12.464  17.666  0.00  0.00     0.050 C 
ENDROOT
BRANCH   2   8
HETATM    8  N   UNK N   1      19.995  12.145  14.854  0.00  0.00    -0.192 N 
HETATM    9  C   UNK N   1      20.044  11.193  13.978  0.00  0.00     0.669 C 
HETATM   10  N   UNK N   1      21.139  11.131  13.083  0.00  0.00    -0.235 N 
HETATM   11  N   UNK N   1      19.023  10.202  13.897  0.00  0.00    -0.235 N 
HETATM   12  H   UNK N   1      21.890  11.835  13.123  0.00  0.00     0.174 HD
HETATM   13  H   UNK N   1      21.190  10.377  12.383  0.00  0.00     0.174 HD
HETATM   14  H   UNK N   1      18.210  10.204  14.528  0.00  0.00     0.174 HD
HETATM   15  H   UNK N   1      19.092   9.455  13.192  0.00  0.00     0.174 HD
ATOM     16  HN  UNK N   1      20.751  12.829  14.874  1.00  0.00     0.184 HD
ENDBRANCH   2   8
BRANCH   4  17
HETATM   17  N   UNK N   1      15.728  12.563  18.550  0.00  0.00    -0.116 N 
HETATM   18  O   UNK N   1      15.962  12.588  19.844  0.00  0.00    -0.532 OA
HETATM   19  O   UNK N   1      14.600  12.626  18.160  0.00  0.00    -0.532 OA
ENDBRANCH   4  17
TORSDOF 2
ENDMDL
MODEL 8
REMARK VINA RESULT:      -5.9      9.992     11.496
REMARK  2 active torsions:
REMARK  status: ('A' for Active; 'I' for Inactive)
REMARK    1  A    between atoms: N_3  and  C_9 
REMARK    2  A    between atoms: N_5  and  C_11 
REMARK       I    between atoms: N_6  and  C_15 
REMARK       I    between atoms: N_7  and  C_15 
ROOT
HETATM    1  C   UNK N   1       9.938  18.318  19.767  0.00  0.00    -0.032 A 
HETATM    2  C   UNK N   1       9.023  19.129  19.068  0.00  0.00     0.055 A 
HETATM    3  C   UNK N   1      10.693  17.366  19.066  0.00  0.00     0.045 A 
HETATM    4  C   UNK N   1      10.545  17.213  17.676  0.00  0.00     0.103 A 
HETATM    5  C   UNK N   1       8.859  18.967  17.688  0.00  0.00     0.033 A 
HETATM    6  C   UNK N   1       9.614  18.019  16.994  0.00  0.00     0.038 A 
HETATM    7  C   UNK N   1      10.122  18.470  21.251  0.00  0.00     0.050 C 
ENDROOT
BRANCH   2   8
HETATM    8  N   UNK N   1       8.269  20.118  19.750  0.00  0.00    -0.192 N 
HETATM    9  C   UNK N   1       8.584  21.373  19.741  0.00  0.00     0.669 C 
HETATM   10  N   UNK N   1       7.779  22.296  20.450  0.00  0.00    -0.235 N 
HETATM   11  N   UNK N   1       9.729  21.848  19.037  0.00  0.00    -0.235 N 
HETATM   12  H   UNK N   1       6.948  21.976  20.968  0.00  0.00     0.174 HD
HETATM   13  H   UNK N   1       8.021  23.297  20.452  0.00  0.00     0.174 HD
HETATM   14  H   UNK N   1      10.346  21.215  18.509  0.00  0.00     0.174 HD
HETATM   15  H   UNK N   1       9.956  22.852  19.050  0.00  0.00     0.174 HD
ATOM     16  HN  UNK N   1       7.441  19.827  20.270  1.00  0.00     0.184 HD
ENDBRANCH   2   8
BRANCH   4  17
HETATM   17  N   UNK N   1      11.332  16.260  16.963  0.00  0.00    -0.116 N 
HETATM   18  O   UNK N   1      12.632  16.192  17.154  0.00  0.00    -0.532 OA
HETATM   19  O   UNK N   1      10.814  15.499  16.199  0.00  0.00    -0.532 OA
ENDBRANCH   4  17
TORSDOF 2
ENDMDL
MODEL 9
REMARK VINA RESULT:      -5.9     10.500     12.031
REMARK  2 active torsions:
REMARK  status: ('A' for Active; 'I' for Inactive)
REMARK    1  A    between atoms: N_3  and  C_9 
REMARK    2  A    between atoms: N_5  and  C_11 
REMARK       I    between atoms: N_6  and  C_15 
REMARK       I    between atoms: N_7  and  C_15 
ROOT
HETATM    1  C   UNK N   1       8.843  19.416  17.258  0.00  0.00    -0.032 A 
HETATM    2  C   UNK N   1       8.667  19.405  18.654  0.00  0.00     0.055 A 
HETATM    3  C   UNK N   1       9.678  18.461  16.659  0.00  0.00     0.045 A 
HETATM    4  C   UNK N   1      10.338  17.494  17.438  0.00  0.00     0.103 A 
HETATM    5  C   UNK N   1       9.337  18.457  19.436  0.00  0.00     0.033 A 
HETATM    6  C   UNK N   1      10.165  17.506  18.834  0.00  0.00     0.038 A 
HETATM    7  C   UNK N   1       8.139  20.433  16.402  0.00  0.00     0.050 C 
ENDROOT
BRANCH   2   8
HETATM    8  N   UNK N   1       7.806  20.343  19.281  0.00  0.00    -0.192 N 
HETATM    9  C   UNK N   1       8.222  21.478  19.744  0.00  0.00     0.669 C 
HETATM   10  N   UNK N   1       7.297  22.356  20.359  0.00  0.00    -0.235 N 
HETATM   11  N   UNK N   1       9.591  21.862  19.655  0.00  0.00    -0.235 N 
HETATM   12  H   UNK N   1       6.303  22.099  20.437  0.00  0.00     0.174 HD
HETATM   13  H   UNK N   1       7.616  23.260  20.733  0.00  0.00     0.174 HD
HETATM   14  H   UNK N   1      10.301  21.255  19.220  0.00  0.00     0.174 HD
HETATM   15  H   UNK N   1       9.892  22.769  20.036  0.00  0.00     0.174 HD
ATOM     16  HN  UNK N   1       6.817  20.112  19.371  1.00  0.00     0.184 HD
ENDBRANCH   2   8
BRANCH   4  17
HETATM   17  N   UNK N   1      11.168  16.510  16.822  0.00  0.00    -0.116 N 
HETATM   18  O   UNK N   1      10.642  15.584  16.050  0.00  0.00    -0.532 OA
HETATM   19  O   UNK N   1      12.352  16.528  16.987  0.00  0.00    -0.532 OA
ENDBRANCH   4  17
TORSDOF 2
ENDMDL
