MODEL 1
REMARK VINA RESULT:      -6.7      0.000      0.000
REMARK  2 active torsions:
REMARK  status: ('A' for Active; 'I' for Inactive)
REMARK    1  A    between atoms: N_3  and  C_9 
REMARK    2  A    between atoms: N_5  and  C_10 
REMARK       I    between atoms: N_6  and  C_15 
REMARK       I    between atoms: N_7  and  C_15 
ROOT
HETATM    1  C   UNK N   1      18.676  13.072  18.610  0.00  0.00    -0.032 A 
HETATM    2  C   UNK N   1      17.551  12.367  18.132  0.00  0.00     0.088 A 
HETATM    3  C   UNK N   1      16.333  12.429  18.835  0.00  0.00     0.130 A 
HETATM    4  C   UNK N   1      18.573  13.815  19.796  0.00  0.00     0.009 A 
HETATM    5  C   UNK N   1      16.248  13.173  20.018  0.00  0.00     0.038 A 
HETATM    6  C   UNK N   1      19.979  13.026  17.862  0.00  0.00     0.050 C 
HETATM    7  C   UNK N   1      17.366  13.856  20.500  0.00  0.00     0.003 A 
ENDROOT
BRANCH   2   8
HETATM    8  N   UNK N   1      17.644  11.591  16.945  0.00  0.00    -0.190 N 
HETATM    9  C   UNK N   1      17.149  11.977  15.814  0.00  0.00     0.670 C 
HETATM   10  N   UNK N   1      17.275  11.140  14.679  0.00  0.00    -0.235 N 
HETATM   11  N   UNK N   1      16.473  13.225  15.683  0.00  0.00    -0.235 N 
HETATM   12  H   UNK N   1      17.755  10.231  14.748  0.00  0.00     0.174 HD
HETATM   13  H   UNK N   1      16.881  11.436  13.774  0.00  0.00     0.174 HD
HETATM   14  H   UNK N   1      16.356  13.867  16.479  0.00  0.00     0.174 HD
HETATM   15  H   UNK N   1      16.088  13.503  14.770  0.00  0.00     0.174 HD
ATOM     16  HN  UNK N   1      18.121  10.691  16.987  1.00  0.00     0.184 HD
ENDBRANCH   2   8
BRANCH   3  17
HETATM   17  N   UNK N   1      15.196  11.743  18.351  0.00  0.00    -0.113 N 
HETATM   18  O   UNK N   1      15.184  10.428  18.324  0.00  0.00    -0.532 OA
HETATM   19  O   UNK N   1      14.267  12.356  17.916  0.00  0.00    -0.532 OA
ENDBRANCH   3  17
TORSDOF 2
ENDMDL
MODEL 2
REMARK VINA RESULT:      -6.7      1.601      3.368
REMARK  2 active torsions:
REMARK  status: ('A' for Active; 'I' for Inactive)
REMARK    1  A    between atoms: N_3  and  C_9 
REMARK    2  A    between atoms: N_5  and  C_10 
REMARK       I    between atoms: N_6  and  C_15 
REMARK       I    between atoms: N_7  and  C_15 
ROOT
HETATM    1  C   UNK N   1      17.993  13.666  19.975  0.00  0.00    -0.032 A 
HETATM    2  C   UNK N   1      17.009  12.956  19.255  0.00  0.00     0.088 A 
HETATM    3  C   UNK N   1      17.343  12.331  18.040  0.00  0.00     0.130 A 
HETATM    4  C   UNK N   1      19.295  13.758  19.459  0.00  0.00     0.009 A 
HETATM    5  C   UNK N   1      18.646  12.435  17.537  0.00  0.00     0.038 A 
HETATM    6  C   UNK N   1      17.654  14.327  21.282  0.00  0.00     0.050 C 
HETATM    7  C   UNK N   1      19.615  13.152  18.241  0.00  0.00     0.003 A 
ENDROOT
BRANCH   2   8
HETATM    8  N   UNK N   1      15.680  12.872  19.752  0.00  0.00    -0.190 N 
HETATM    9  C   UNK N   1      14.727  13.644  19.339  0.00  0.00     0.670 C 
HETATM   10  N   UNK N   1      13.431  13.503  19.892  0.00  0.00    -0.235 N 
HETATM   11  N   UNK N   1      14.951  14.636  18.341  0.00  0.00    -0.235 N 
HETATM   12  H   UNK N   1      13.244  12.797  20.618  0.00  0.00     0.174 HD
HETATM   13  H   UNK N   1      12.666  14.115  19.573  0.00  0.00     0.174 HD
HETATM   14  H   UNK N   1      15.875  14.776  17.910  0.00  0.00     0.174 HD
HETATM   15  H   UNK N   1      14.172  15.236  18.035  0.00  0.00     0.174 HD
ATOM     16  HN  UNK N   1      15.469  12.175  20.466  1.00  0.00     0.184 HD
ENDBRANCH   2   8
BRANCH   3  17
HETATM   17  N   UNK N   1      16.367  11.600  17.323  0.00  0.00    -0.113 N 
HETATM   18  O   UNK N   1      15.697  12.177  16.350  0.00  0.00    -0.532 OA
HETATM   19  O   UNK N   1      16.113  10.475  17.637  0.00  0.00    -0.532 OA
ENDBRANCH   3  17
TORSDOF 2
ENDMDL
MODEL 3
REMARK VINA RESULT:      -6.3      1.732      3.406
REMARK  2 active torsions:
REMARK  status: ('A' for Active; 'I' for Inactive)
REMARK    1  A    between atoms: N_3  and  C_9 
REMARK    2  A    between atoms: N_5  and  C_10 
REMARK       I    between atoms: N_6  and  C_15 
REMARK       I    between atoms: N_7  and  C_15 
ROOT
HETATM    1  C   UNK N   1      18.154  13.182  19.016  0.00  0.00    -0.032 A 
HETATM    2  C   UNK N   1      17.328  12.725  17.967  0.00  0.00     0.088 A 
HETATM    3  C   UNK N   1      17.894  12.390  16.723  0.00  0.00     0.130 A 
HETATM    4  C   UNK N   1      19.534  13.316  18.800  0.00  0.00     0.009 A 
HETATM    5  C   UNK N   1      19.272  12.534  16.523  0.00  0.00     0.038 A 
HETATM    6  C   UNK N   1      17.565  13.530  20.355  0.00  0.00     0.050 C 
HETATM    7  C   UNK N   1      20.087  13.002  17.556  0.00  0.00     0.003 A 
ENDROOT
BRANCH   2   8
HETATM    8  N   UNK N   1      15.926  12.605  18.162  0.00  0.00    -0.190 N 
HETATM    9  C   UNK N   1      15.375  11.548  18.667  0.00  0.00     0.670 C 
HETATM   10  N   UNK N   1      13.968  11.504  18.819  0.00  0.00    -0.235 N 
HETATM   11  N   UNK N   1      16.152  10.424  19.071  0.00  0.00    -0.235 N 
HETATM   12  H   UNK N   1      13.383  12.302  18.531  0.00  0.00     0.174 HD
HETATM   13  H   UNK N   1      13.519  10.666  19.217  0.00  0.00     0.174 HD
HETATM   14  H   UNK N   1      17.177  10.409  18.979  0.00  0.00     0.174 HD
HETATM   15  H   UNK N   1      15.684   9.597  19.467  0.00  0.00     0.174 HD
ATOM     16  HN  UNK N   1      15.327  13.385  17.891  1.00  0.00     0.184 HD
ENDBRANCH   2   8
BRANCH   3  17
HETATM   17  N   UNK N   1      17.075  11.912  15.674  0.00  0.00    -0.113 N 
HETATM   18  O   UNK N   1      17.512  10.957  14.883  0.00  0.00    -0.532 OA
HETATM   19  O   UNK N   1      16.008  12.411  15.473  0.00  0.00    -0.532 OA
ENDBRANCH   3  17
TORSDOF 2
ENDMDL
MODEL 4
REMARK VINA RESULT:      -6.1      1.992      3.275
REMARK  2 active torsions:
REMARK  status: ('A' for Active; 'I' for Inactive)
REMARK    1  A    between atoms: N_3  and  C_9 
REMARK    2  A    between atoms: N_5  and  C_10 
REMARK       I    between atoms: N_6  and  C_15 
REMARK       I    between atoms: N_7  and  C_15 
ROOT
HETATM    1  C   UNK N   1      17.941  12.178  16.243  0.00  0.00    -0.032 A 
HETATM    2  C   UNK N   1      17.198  12.359  17.428  0.00  0.00     0.088 A 
HETATM    3  C   UNK N   1      17.836  12.820  18.594  0.00  0.00     0.130 A 
HETATM    4  C   UNK N   1      19.319  12.443  16.244  0.00  0.00     0.009 A 
HETATM    5  C   UNK N   1      19.213  13.077  18.579  0.00  0.00     0.038 A 
HETATM    6  C   UNK N   1      17.269  11.699  14.986  0.00  0.00     0.050 C 
HETATM    7  C   UNK N   1      19.951  12.882  17.410  0.00  0.00     0.003 A 
ENDROOT
BRANCH   2   8
HETATM    8  N   UNK N   1      15.806  12.072  17.450  0.00  0.00    -0.190 N 
HETATM    9  C   UNK N   1      14.899  12.982  17.292  0.00  0.00     0.670 C 
HETATM   10  N   UNK N   1      13.532  12.616  17.337  0.00  0.00    -0.235 N 
HETATM   11  N   UNK N   1      15.245  14.348  17.078  0.00  0.00    -0.235 N 
HETATM   12  H   UNK N   1      13.256  11.636  17.495  0.00  0.00     0.174 HD
HETATM   13  H   UNK N   1      12.803  13.334  17.216  0.00  0.00     0.174 HD
HETATM   14  H   UNK N   1      16.224  14.663  17.037  0.00  0.00     0.174 HD
HETATM   15  H   UNK N   1      14.500  15.049  16.957  0.00  0.00     0.174 HD
ATOM     16  HN  UNK N   1      15.508  11.108  17.598  1.00  0.00     0.184 HD
ENDBRANCH   2   8
BRANCH   3  17
HETATM   17  N   UNK N   1      17.094  13.023  19.779  0.00  0.00    -0.113 N 
HETATM   18  O   UNK N   1      17.224  14.145  20.452  0.00  0.00    -0.532 OA
HETATM   19  O   UNK N   1      16.389  12.155  20.200  0.00  0.00    -0.532 OA
ENDBRANCH   3  17
TORSDOF 2
ENDMDL
MODEL 5
REMARK VINA RESULT:      -5.9     10.051     11.465
REMARK  2 active torsions:
REMARK  status: ('A' for Active; 'I' for Inactive)
REMARK    1  A    between atoms: N_3  and  C_9 
REMARK    2  A    between atoms: N_5  and  C_10 
REMARK       I    between atoms: N_6  and  C_15 
REMARK       I    between atoms: N_7  and  C_15 
ROOT
HETATM    1  C   UNK N   1       7.735  20.596  19.327  0.00  0.00    -0.032 A 
HETATM    2  C   UNK N   1       8.780  19.945  18.639  0.00  0.00     0.088 A 
HETATM    3  C   UNK N   1       8.747  19.853  17.235  0.00  0.00     0.130 A 
HETATM    4  C   UNK N   1       6.659  21.131  18.602  0.00  0.00     0.009 A 
HETATM    5  C   UNK N   1       7.664  20.389  16.527  0.00  0.00     0.038 A 
HETATM    6  C   UNK N   1       7.765  20.713  20.826  0.00  0.00     0.050 C 
HETATM    7  C   UNK N   1       6.621  21.019  17.210  0.00  0.00     0.003 A 
ENDROOT
BRANCH   2   8
HETATM    8  N   UNK N   1       9.866  19.377  19.359  0.00  0.00    -0.190 N 
HETATM    9  C   UNK N   1       9.905  18.130  19.703  0.00  0.00     0.670 C 
HETATM   10  N   UNK N   1      11.019  17.644  20.429  0.00  0.00    -0.235 N 
HETATM   11  N   UNK N   1       8.848  17.233  19.372  0.00  0.00    -0.235 N 
HETATM   12  H   UNK N   1      11.794  18.273  20.685  0.00  0.00     0.174 HD
HETATM   13  H   UNK N   1      11.058  16.654  20.711  0.00  0.00     0.174 HD
HETATM   14  H   UNK N   1       8.018  17.539  18.846  0.00  0.00     0.174 HD
HETATM   15  H   UNK N   1       8.907  16.247  19.661  0.00  0.00     0.174 HD
ATOM     16  HN  UNK N   1      10.648  19.979  19.617  1.00  0.00     0.184 HD
ENDBRANCH   2   8
BRANCH   3  17
HETATM   17  N   UNK N   1       9.801  19.220  16.538  0.00  0.00    -0.113 N 
HETATM   18  O   UNK N   1       9.777  17.919  16.351  0.00  0.00    -0.532 OA
HETATM   19  O   UNK N   1      10.739  19.858  16.164  0.00  0.00    -0.532 OA
ENDBRANCH   3  17
TORSDOF 2
ENDMDL
MODEL 6
REMARK VINA RESULT:      -5.9      8.927     10.278
REMARK  2 active torsions:
REMARK  status: ('A' for Active; 'I' for Inactive)
REMARK    1  A    between atoms: N_3  and  C_9 
REMARK    2  A    between atoms: N_5  and  C_10 
REMARK       I    between atoms: N_6  and  C_15 
REMARK       I    between atoms: N_7  and  C_15 
ROOT
HETATM    1  C   UNK N   1       8.634  19.781  16.951  0.00  0.00    -0.032 A 
HETATM    2  C   UNK N   1       9.249  18.536  17.197  0.00  0.00     0.088 A 
HETATM    3  C   UNK N   1      10.376  18.149  16.448  0.00  0.00     0.130 A 
HETATM    4  C   UNK N   1       9.144  20.617  15.946  0.00  0.00     0.009 A 
HETATM    5  C   UNK N   1      10.870  18.994  15.446  0.00  0.00     0.038 A 
HETATM    6  C   UNK N   1       7.438  20.213  17.753  0.00  0.00     0.050 C 
HETATM    7  C   UNK N   1      10.251  20.219  15.192  0.00  0.00     0.003 A 
ENDROOT
BRANCH   2   8
HETATM    8  N   UNK N   1       8.732  17.667  18.196  0.00  0.00    -0.190 N 
HETATM    9  C   UNK N   1       9.097  17.727  19.436  0.00  0.00     0.670 C 
HETATM   10  N   UNK N   1       8.542  16.819  20.369  0.00  0.00    -0.235 N 
HETATM   11  N   UNK N   1      10.051  18.686  19.886  0.00  0.00    -0.235 N 
HETATM   12  H   UNK N   1       7.854  16.113  20.068  0.00  0.00     0.174 HD
HETATM   13  H   UNK N   1       8.828  16.856  21.358  0.00  0.00     0.174 HD
HETATM   14  H   UNK N   1      10.483  19.367  19.245  0.00  0.00     0.174 HD
HETATM   15  H   UNK N   1      10.323  18.708  20.879  0.00  0.00     0.174 HD
ATOM     16  HN  UNK N   1       8.044  16.965  17.924  1.00  0.00     0.184 HD
ENDBRANCH   2   8
BRANCH   3  17
HETATM   17  N   UNK N   1      11.010  16.912  16.703  0.00  0.00    -0.113 N 
HETATM   18  O   UNK N   1      10.535  15.808  16.171  0.00  0.00    -0.532 OA
HETATM   19  O   UNK N   1      11.946  16.861  17.444  0.00  0.00    -0.532 OA
ENDBRANCH   3  17
TORSDOF 2
ENDMDL
MODEL 7
REMARK VINA RESULT:      -5.8      3.047      4.331
REMARK  2 active torsions:
REMARK  status: ('A' for Active; 'I' for Inactive)
REMARK    1  A    between atoms: N_3  and  C_9 
REMARK    2  A    between atoms: N_5  and  C_10 
REMARK       I    between atoms: N_6  and  C_15 
REMARK       I    between atoms: N_7  and  C_15 
ROOT
HETATM    1  C   UNK N   1      16.273  11.323  18.089  0.00  0.00    -0.032 A 
HETATM    2  C   UNK N   1      15.121  12.136  18.137  0.00  0.00     0.088 A 
HETATM    3  C   UNK N   1      14.936  13.149  17.178  0.00  0.00     0.130 A 
HETATM    4  C   UNK N   1      17.235  11.547  17.092  0.00  0.00     0.009 A 
HETATM    5  C   UNK N   1      15.908  13.361  16.192  0.00  0.00     0.038 A 
HETATM    6  C   UNK N   1      16.477  10.228  19.099  0.00  0.00     0.050 C 
HETATM    7  C   UNK N   1      17.056  12.567  16.155  0.00  0.00     0.003 A 
ENDROOT
BRANCH   2   8
HETATM    8  N   UNK N   1      14.148  11.939  19.154  0.00  0.00    -0.190 N 
HETATM    9  C   UNK N   1      14.025  12.729  20.171  0.00  0.00     0.670 C 
HETATM   10  N   UNK N   1      13.036  12.457  21.146  0.00  0.00    -0.235 N 
HETATM   11  N   UNK N   1      14.866  13.868  20.335  0.00  0.00    -0.235 N 
HETATM   12  H   UNK N   1      12.418  11.638  21.053  0.00  0.00     0.174 HD
HETATM   13  H   UNK N   1      12.932  13.078  21.962  0.00  0.00     0.174 HD
HETATM   14  H   UNK N   1      15.599  14.106  19.653  0.00  0.00     0.174 HD
HETATM   15  H   UNK N   1      14.745  14.477  21.156  0.00  0.00     0.174 HD
ATOM     16  HN  UNK N   1      13.521  11.138  19.079  1.00  0.00     0.184 HD
ENDBRANCH   2   8
BRANCH   3  17
HETATM   17  N   UNK N   1      13.775  13.954  17.207  0.00  0.00    -0.113 N 
HETATM   18  O   UNK N   1      13.876  15.246  17.427  0.00  0.00    -0.532 OA
HETATM   19  O   UNK N   1      12.697  13.454  17.086  0.00  0.00    -0.532 OA
ENDBRANCH   3  17
TORSDOF 2
ENDMDL
MODEL 8
REMARK VINA RESULT:      -5.8     10.577     11.925
REMARK  2 active torsions:
REMARK  status: ('A' for Active; 'I' for Inactive)
REMARK    1  A    between atoms: N_3  and  C_9 
REMARK    2  A    between atoms: N_5  and  C_10 
REMARK       I    between atoms: N_6  and  C_15 
REMARK       I    between atoms: N_7  and  C_15 
ROOT
HETATM    1  C   UNK N   1       8.077  20.628  16.953  0.00  0.00    -0.032 A 
HETATM    2  C   UNK N   1       8.259  19.966  18.185  0.00  0.00     0.088 A 
HETATM    3  C   UNK N   1       9.071  18.818  18.251  0.00  0.00     0.130 A 
HETATM    4  C   UNK N   1       8.694  20.123  15.798  0.00  0.00     0.009 A 
HETATM    5  C   UNK N   1       9.677  18.325  17.089  0.00  0.00     0.038 A 
HETATM    6  C   UNK N   1       7.223  21.863  16.870  0.00  0.00     0.050 C 
HETATM    7  C   UNK N   1       9.483  18.972  15.867  0.00  0.00     0.003 A 
ENDROOT
BRANCH   2   8
HETATM    8  N   UNK N   1       7.623  20.451  19.359  0.00  0.00    -0.190 N 
HETATM    9  C   UNK N   1       8.167  21.325  20.142  0.00  0.00     0.670 C 
HETATM   10  N   UNK N   1       7.470  21.750  21.299  0.00  0.00    -0.235 N 
HETATM   11  N   UNK N   1       9.455  21.869  19.870  0.00  0.00    -0.235 N 
HETATM   12  H   UNK N   1       6.539  21.369  21.521  0.00  0.00     0.174 HD
HETATM   13  H   UNK N   1       7.896  22.443  21.932  0.00  0.00     0.174 HD
HETATM   14  H   UNK N   1      10.000  21.591  19.042  0.00  0.00     0.174 HD
HETATM   15  H   UNK N   1       9.863  22.562  20.514  0.00  0.00     0.174 HD
ATOM     16  HN  UNK N   1       6.697  20.093  19.595  1.00  0.00     0.184 HD
ENDBRANCH   2   8
BRANCH   3  17
HETATM   17  N   UNK N   1       9.275  18.161  19.486  0.00  0.00    -0.113 N 
HETATM   18  O   UNK N   1      10.081  18.684  20.384  0.00  0.00    -0.532 OA
HETATM   19  O   UNK N   1       8.758  17.104  19.694  0.00  0.00    -0.532 OA
ENDBRANCH   3  17
TORSDOF 2
ENDMDL
MODEL 9
REMARK VINA RESULT:      -5.8      9.421     10.608
REMARK  2 active torsions:
REMARK  status: ('A' for Active; 'I' for Inactive)
REMARK    1  A    between atoms: N_3  and  C_9 
REMARK    2  A    between atoms: N_5  and  C_10 
REMARK       I    between atoms: N_6  and  C_15 
REMARK       I    between atoms: N_7  and  C_15 
ROOT
HETATM    1  C   UNK N   1       9.671  18.987  16.245  0.00  0.00    -0.032 A 
HETATM    2  C   UNK N   1       9.341  18.924  17.615  0.00  0.00     0.088 A 
HETATM    3  C   UNK N   1       9.961  17.970  18.443  0.00  0.00     0.130 A 
HETATM    4  C   UNK N   1      10.604  18.081  15.717  0.00  0.00     0.009 A 
HETATM    5  C   UNK N   1      10.887  17.072  17.900  0.00  0.00     0.038 A 
HETATM    6  C   UNK N   1       9.027  20.009  15.350  0.00  0.00     0.050 C 
HETATM    7  C   UNK N   1      11.201  17.123  16.541  0.00  0.00     0.003 A 
ENDROOT
BRANCH   2   8
HETATM    8  N   UNK N   1       8.381  19.818  18.161  0.00  0.00    -0.190 N 
HETATM    9  C   UNK N   1       8.683  21.008  18.571  0.00  0.00     0.670 C 
HETATM   10  N   UNK N   1       7.669  21.834  19.112  0.00  0.00    -0.235 N 
HETATM   11  N   UNK N   1      10.017  21.505  18.495  0.00  0.00    -0.235 N 
HETATM   12  H   UNK N   1       6.698  21.497  19.182  0.00  0.00     0.174 HD
HETATM   13  H   UNK N   1       7.900  22.782  19.445  0.00  0.00     0.174 HD
HETATM   14  H   UNK N   1      10.787  20.941  18.111  0.00  0.00     0.174 HD
HETATM   15  H   UNK N   1      10.226  22.455  18.832  0.00  0.00     0.174 HD
ATOM     16  HN  UNK N   1       7.412  19.509  18.234  1.00  0.00     0.184 HD
ENDBRANCH   2   8
BRANCH   3  17
HETATM   17  N   UNK N   1       9.650  17.915  19.821  0.00  0.00    -0.113 N 
HETATM   18  O   UNK N   1       8.605  17.232  20.233  0.00  0.00    -0.532 OA
HETATM   19  O   UNK N   1      10.305  18.532  20.607  0.00  0.00    -0.532 OA
ENDBRANCH   3  17
TORSDOF 2
ENDMDL
