MODEL 1
REMARK VINA RESULT:      -3.6      0.000      0.000
REMARK  2 active torsions:
REMARK  status: ('A' for Active; 'I' for Inactive)
REMARK    1  A    between atoms: O_1  and  C_3 
REMARK    2  A    between atoms: N_2  and  C_3 
ROOT
HETATM    1  C   UNK N   1      19.548  12.486  15.682  0.00  0.00     0.353 C 
HETATM    2  C   UNK N   1      20.326  12.874  16.948  0.00  0.00     0.073 C 
ENDROOT
BRANCH   1   3
HETATM    3  O   UNK N   1      18.212  12.111  15.997  0.00  0.00    -0.362 OA
HETATM    4  C   UNK N   1      17.976  12.163  17.386  0.00  0.00     0.204 C 
ENDBRANCH   1   3
BRANCH   1   5
HETATM    5  N   UNK N   1      20.244  11.378  14.979  0.00  0.00     0.108 N 
HETATM    6  C   UNK N   1      19.477  10.818  13.849  0.00  0.00     0.312 C 
HETATM    7  C   UNK N   1      21.582  11.786  14.524  0.00  0.00     0.312 C 
ENDBRANCH   1   5
TORSDOF 2
ENDMDL
MODEL 2
REMARK VINA RESULT:      -3.5      2.834      4.849
REMARK  2 active torsions:
REMARK  status: ('A' for Active; 'I' for Inactive)
REMARK    1  A    between atoms: O_1  and  C_3 
REMARK    2  A    between atoms: N_2  and  C_3 
ROOT
HETATM    1  C   UNK N   1      16.569  12.476  17.306  0.00  0.00     0.353 C 
HETATM    2  C   UNK N   1      15.087  12.865  17.192  0.00  0.00     0.073 C 
ENDROOT
BRANCH   1   3
HETATM    3  O   UNK N   1      16.970  11.665  16.208  0.00  0.00    -0.362 OA
HETATM    4  C   UNK N   1      18.270  11.994  15.771  0.00  0.00     0.204 C 
ENDBRANCH   1   3
BRANCH   1   5
HETATM    5  N   UNK N   1      16.810  11.768  18.588  0.00  0.00     0.108 N 
HETATM    6  C   UNK N   1      16.501  12.578  19.782  0.00  0.00     0.312 C 
HETATM    7  C   UNK N   1      16.079  10.492  18.644  0.00  0.00     0.312 C 
ENDBRANCH   1   5
TORSDOF 2
ENDMDL
MODEL 3
REMARK VINA RESULT:      -3.5      5.089      6.036
REMARK  2 active torsions:
REMARK  status: ('A' for Active; 'I' for Inactive)
REMARK    1  A    between atoms: O_1  and  C_3 
REMARK    2  A    between atoms: N_2  and  C_3 
ROOT
HETATM    1  C   UNK N   1      15.864  12.360  18.079  0.00  0.00     0.353 C 
HETATM    2  C   UNK N   1      15.137  13.177  17.001  0.00  0.00     0.073 C 
ENDROOT
BRANCH   1   3
HETATM    3  O   UNK N   1      15.711  10.963  17.853  0.00  0.00    -0.362 OA
HETATM    4  C   UNK N   1      16.199  10.209  18.940  0.00  0.00     0.204 C 
ENDBRANCH   1   3
BRANCH   1   5
HETATM    5  N   UNK N   1      15.352  12.725  19.424  0.00  0.00     0.108 N 
HETATM    6  C   UNK N   1      16.131  13.789  20.088  0.00  0.00     0.312 C 
HETATM    7  C   UNK N   1      13.930  13.102  19.375  0.00  0.00     0.312 C 
ENDBRANCH   1   5
TORSDOF 2
ENDMDL
MODEL 4
REMARK VINA RESULT:      -3.4      4.077      5.200
REMARK  2 active torsions:
REMARK  status: ('A' for Active; 'I' for Inactive)
REMARK    1  A    between atoms: O_1  and  C_3 
REMARK    2  A    between atoms: N_2  and  C_3 
ROOT
HETATM    1  C   UNK N   1      16.045  12.850  19.337  0.00  0.00     0.353 C 
HETATM    2  C   UNK N   1      16.786  13.793  20.297  0.00  0.00     0.073 C 
ENDROOT
BRANCH   1   3
HETATM    3  O   UNK N   1      14.881  12.307  19.950  0.00  0.00    -0.362 OA
HETATM    4  C   UNK N   1      13.708  12.921  19.466  0.00  0.00     0.204 C 
ENDBRANCH   1   3
BRANCH   1   5
HETATM    5  N   UNK N   1      16.952  11.762  18.893  0.00  0.00     0.108 N 
HETATM    6  C   UNK N   1      16.363  10.414  19.009  0.00  0.00     0.312 C 
HETATM    7  C   UNK N   1      17.429  11.985  17.519  0.00  0.00     0.312 C 
ENDBRANCH   1   5
TORSDOF 2
ENDMDL
MODEL 5
REMARK VINA RESULT:      -3.4      3.817      5.707
REMARK  2 active torsions:
REMARK  status: ('A' for Active; 'I' for Inactive)
REMARK    1  A    between atoms: O_1  and  C_3 
REMARK    2  A    between atoms: N_2  and  C_3 
ROOT
HETATM    1  C   UNK N   1      15.784  11.716  18.432  0.00  0.00     0.353 C 
HETATM    2  C   UNK N   1      16.702  12.483  19.394  0.00  0.00     0.073 C 
ENDROOT
BRANCH   1   3
HETATM    3  O   UNK N   1      16.339  11.669  17.122  0.00  0.00    -0.362 OA
HETATM    4  C   UNK N   1      17.710  12.001  17.131  0.00  0.00     0.204 C 
ENDBRANCH   1   3
BRANCH   1   5
HETATM    5  N   UNK N   1      14.440  12.346  18.402  0.00  0.00     0.108 N 
HETATM    6  C   UNK N   1      13.720  12.272  19.687  0.00  0.00     0.312 C 
HETATM    7  C   UNK N   1      14.511  13.744  17.946  0.00  0.00     0.312 C 
ENDBRANCH   1   5
TORSDOF 2
ENDMDL
MODEL 6
REMARK VINA RESULT:      -3.4      4.343      5.730
REMARK  2 active torsions:
REMARK  status: ('A' for Active; 'I' for Inactive)
REMARK    1  A    between atoms: O_1  and  C_3 
REMARK    2  A    between atoms: N_2  and  C_3 
ROOT
HETATM    1  C   UNK N   1      16.094  12.605  18.722  0.00  0.00     0.353 C 
HETATM    2  C   UNK N   1      17.255  12.340  17.752  0.00  0.00     0.073 C 
ENDROOT
BRANCH   1   3
HETATM    3  O   UNK N   1      16.551  12.639  20.070  0.00  0.00    -0.362 OA
HETATM    4  C   UNK N   1      16.832  13.956  20.486  0.00  0.00     0.204 C 
ENDBRANCH   1   3
BRANCH   1   5
HETATM    5  N   UNK N   1      15.047  11.564  18.557  0.00  0.00     0.108 N 
HETATM    6  C   UNK N   1      15.505  10.203  18.895  0.00  0.00     0.312 C 
HETATM    7  C   UNK N   1      13.837  11.892  19.326  0.00  0.00     0.312 C 
ENDBRANCH   1   5
TORSDOF 2
ENDMDL
MODEL 7
REMARK VINA RESULT:      -3.3      2.585      3.372
REMARK  2 active torsions:
REMARK  status: ('A' for Active; 'I' for Inactive)
REMARK    1  A    between atoms: O_1  and  C_3 
REMARK    2  A    between atoms: N_2  and  C_3 
ROOT
HETATM    1  C   UNK N   1      16.824  12.475  17.784  0.00  0.00     0.353 C 
HETATM    2  C   UNK N   1      17.225  12.721  19.246  0.00  0.00     0.073 C 
ENDROOT
BRANCH   1   3
HETATM    3  O   UNK N   1      15.688  11.622  17.701  0.00  0.00    -0.362 OA
HETATM    4  C   UNK N   1      14.734  11.937  18.691  0.00  0.00     0.204 C 
ENDBRANCH   1   3
BRANCH   1   5
HETATM    5  N   UNK N   1      17.966  11.888  17.037  0.00  0.00     0.108 N 
HETATM    6  C   UNK N   1      17.797  11.921  15.571  0.00  0.00     0.312 C 
HETATM    7  C   UNK N   1      19.238  12.528  17.409  0.00  0.00     0.312 C 
ENDBRANCH   1   5
TORSDOF 2
ENDMDL
MODEL 8
REMARK VINA RESULT:      -3.3      4.146      5.516
REMARK  2 active torsions:
REMARK  status: ('A' for Active; 'I' for Inactive)
REMARK    1  A    between atoms: O_1  and  C_3 
REMARK    2  A    between atoms: N_2  and  C_3 
ROOT
HETATM    1  C   UNK N   1      15.382  11.764  19.054  0.00  0.00     0.353 C 
HETATM    2  C   UNK N   1      15.349  10.231  18.963  0.00  0.00     0.073 C 
ENDROOT
BRANCH   1   3
HETATM    3  O   UNK N   1      14.928  12.359  17.844  0.00  0.00    -0.362 OA
HETATM    4  C   UNK N   1      13.767  13.132  18.053  0.00  0.00     0.204 C 
ENDBRANCH   1   3
BRANCH   1   5
HETATM    5  N   UNK N   1      16.758  12.224  19.372  0.00  0.00     0.108 N 
HETATM    6  C   UNK N   1      17.626  12.363  18.187  0.00  0.00     0.312 C 
HETATM    7  C   UNK N   1      16.742  13.484  20.132  0.00  0.00     0.312 C 
ENDBRANCH   1   5
TORSDOF 2
ENDMDL
MODEL 9
REMARK VINA RESULT:      -3.3      4.529      5.462
REMARK  2 active torsions:
REMARK  status: ('A' for Active; 'I' for Inactive)
REMARK    1  A    between atoms: O_1  and  C_3 
REMARK    2  A    between atoms: N_2  and  C_3 
ROOT
HETATM    1  C   UNK N   1      15.319  12.590  17.580  0.00  0.00     0.353 C 
HETATM    2  C   UNK N   1      15.938  12.862  16.201  0.00  0.00     0.073 C 
ENDROOT
BRANCH   1   3
HETATM    3  O   UNK N   1      14.971  13.805  18.233  0.00  0.00    -0.362 OA
HETATM    4  C   UNK N   1      13.594  14.084  18.103  0.00  0.00     0.204 C 
ENDBRANCH   1   3
BRANCH   1   5
HETATM    5  N   UNK N   1      16.265  11.807  18.415  0.00  0.00     0.108 N 
HETATM    6  C   UNK N   1      16.626  12.469  19.684  0.00  0.00     0.312 C 
HETATM    7  C   UNK N   1      15.753  10.454  18.684  0.00  0.00     0.312 C 
ENDBRANCH   1   5
TORSDOF 2
ENDMDL
