MODEL 1
REMARK VINA RESULT:     -10.2      0.000      0.000
REMARK  6 active torsions:
REMARK  status: ('A' for Active; 'I' for Inactive)
REMARK    1  A    between atoms: N_2  and  C_16 
REMARK       I    between atoms: N_4  and  C_24 
REMARK    2  A    between atoms: N_4  and  C_25 
REMARK    3  A    between atoms: N_5  and  C_26 
REMARK       I    between atoms: N_5  and  C_32 
REMARK    4  A    between atoms: C_16  and  C_18 
REMARK    5  A    between atoms: C_23  and  C_24 
REMARK    6  A    between atoms: C_33  and  C_34 
ROOT
HETATM    1  C   UNK N   1      10.844  17.495  18.659  0.00  0.00     0.037 A 
HETATM    2  C   UNK N   1       8.989  18.718  19.734  0.00  0.00     0.057 A 
HETATM    3  C   UNK N   1      10.073  17.801  19.809  0.00  0.00     0.060 A 
HETATM    4  C   UNK N   1       8.687  19.317  18.482  0.00  0.00    -0.035 A 
HETATM    5  C   UNK N   1      10.519  18.122  17.449  0.00  0.00     0.030 A 
HETATM    6  C   UNK N   1       9.464  19.018  17.361  0.00  0.00     0.011 A 
HETATM    7  C   UNK N   1       7.541  20.285  18.324  0.00  0.00     0.050 C 
ENDROOT
BRANCH   1   8
HETATM    8  N   UNK N   1      11.930  16.549  18.633  0.00  0.00    -0.323 N 
HETATM    9  C   UNK N   1      12.197  15.596  17.681  0.00  0.00     0.256 C 
HETATM   10  O   UNK N   1      11.440  15.427  16.740  0.00  0.00    -0.267 OA
HETATM   11  H   UNK N   1      12.540  16.570  19.457  0.00  0.00     0.169 HD
BRANCH   9  12
HETATM   12  C   UNK N   1      13.389  14.690  17.820  0.00  0.00     0.032 A 
HETATM   13  C   UNK N   1      14.297  14.557  16.750  0.00  0.00     0.017 A 
HETATM   14  C   UNK N   1      15.382  13.676  16.842  0.00  0.00     0.010 A 
HETATM   15  C   UNK N   1      15.600  12.938  18.015  0.00  0.00    -0.030 A 
HETATM   16  C   UNK N   1      14.727  13.094  19.096  0.00  0.00     0.010 A 
HETATM   17  C   UNK N   1      13.629  13.948  19.001  0.00  0.00     0.017 A 
BRANCH  15  18
HETATM   18  C   UNK N   1      16.754  11.972  18.106  0.00  0.00     0.311 C 
BRANCH  18  19
HETATM   19  N   UNK N   1      17.857  12.413  17.225  0.00  0.00     0.096 N 
HETATM   20  C   UNK N   1      19.095  12.609  18.005  0.00  0.00     0.303 C 
HETATM   21  C   UNK N   1      20.234  13.053  17.079  0.00  0.00     0.302 C 
HETATM   22  N   UNK N   1      20.460  12.030  16.043  0.00  0.00     0.087 N 
HETATM   23  C   UNK N   1      19.235  11.845  15.246  0.00  0.00     0.302 C 
HETATM   24  C   UNK N   1      21.584  12.405  15.175  0.00  0.00     0.310 C 
HETATM   25  C   UNK N   1      18.088  11.408  16.160  0.00  0.00     0.303 C 
ENDBRANCH  18  19
ENDBRANCH  15  18
ENDBRANCH   9  12
ENDBRANCH   1   8
BRANCH   2  26
HETATM   26  N   UNK N   1       8.164  19.024  20.874  0.00  0.00    -0.191 N 
HETATM   27  C   UNK N   1       8.543  19.770  22.029  0.00  0.00     0.683 A 
HETATM   28  N   UNK N   1       9.695  20.497  22.063  0.00  0.00    -0.191 N 
HETATM   29  N   UNK N   1       7.697  19.808  23.090  0.00  0.00    -0.202 N 
HETATM   30  C   UNK N   1      10.048  21.228  23.160  0.00  0.00     0.062 A 
ATOM     31  HN  UNK N   1      10.310  20.493  21.250  1.00  0.00     0.184 HD
HETATM   32  C   UNK N   1       9.182  21.244  24.268  0.00  0.00     0.048 A 
HETATM   33  C   UNK N   1       7.995  20.523  24.202  0.00  0.00     0.108 A 
ATOM     34  HN  UNK N   1       6.821  19.288  23.051  1.00  0.00     0.183 HD
HETATM   35  H   UNK N   1       7.187  18.701  20.864  0.00  0.00     0.184 HD
BRANCH  30  36
HETATM   36  C   UNK N   1      11.331  21.994  23.144  0.00  0.00     0.007 A 
HETATM   37  C   UNK N   1      11.333  23.351  22.773  0.00  0.00     0.017 A 
HETATM   38  C   UNK N   1      12.527  24.074  22.757  0.00  0.00     0.025 A 
HETATM   39  C   UNK N   1      13.723  23.436  23.099  0.00  0.00     0.005 A 
HETATM   40  N   UNK N   1      13.711  22.123  23.450  0.00  0.00    -0.369 N 
HETATM   41  C   UNK N   1      15.015  24.187  23.078  0.00  0.00     0.068 C 
HETATM   42  C   UNK N   1      12.563  21.398  23.487  0.00  0.00     0.101 A 
ATOM     43  HN  UNK N   1      14.591  21.668  23.692  1.00  0.00     0.165 HD
ENDBRANCH  30  36
ENDBRANCH   2  26
TORSDOF 6
ENDMDL
MODEL 2
REMARK VINA RESULT:      -8.6      1.985      2.401
REMARK  6 active torsions:
REMARK  status: ('A' for Active; 'I' for Inactive)
REMARK    1  A    between atoms: N_2  and  C_16 
REMARK       I    between atoms: N_4  and  C_24 
REMARK    2  A    between atoms: N_4  and  C_25 
REMARK    3  A    between atoms: N_5  and  C_26 
REMARK       I    between atoms: N_5  and  C_32 
REMARK    4  A    between atoms: C_16  and  C_18 
REMARK    5  A    between atoms: C_23  and  C_24 
REMARK    6  A    between atoms: C_33  and  C_34 
ROOT
HETATM    1  C   UNK N   1      10.332  18.417  17.072  0.00  0.00     0.037 A 
HETATM    2  C   UNK N   1       8.546  19.888  17.934  0.00  0.00     0.057 A 
HETATM    3  C   UNK N   1       9.468  18.823  18.122  0.00  0.00     0.060 A 
HETATM    4  C   UNK N   1       8.499  20.536  16.670  0.00  0.00    -0.035 A 
HETATM    5  C   UNK N   1      10.261  19.096  15.848  0.00  0.00     0.030 A 
HETATM    6  C   UNK N   1       9.366  20.136  15.651  0.00  0.00     0.011 A 
HETATM    7  C   UNK N   1       7.535  21.662  16.393  0.00  0.00     0.050 C 
ENDROOT
BRANCH   1   8
HETATM    8  N   UNK N   1      11.265  17.323  17.159  0.00  0.00    -0.323 N 
HETATM    9  C   UNK N   1      11.619  16.603  18.273  0.00  0.00     0.256 C 
HETATM   10  O   UNK N   1      11.179  16.898  19.372  0.00  0.00    -0.267 OA
HETATM   11  H   UNK N   1      11.751  17.101  16.284  0.00  0.00     0.169 HD
BRANCH   9  12
HETATM   12  C   UNK N   1      12.618  15.483  18.172  0.00  0.00     0.032 A 
HETATM   13  C   UNK N   1      13.290  15.251  16.955  0.00  0.00     0.017 A 
HETATM   14  C   UNK N   1      14.183  14.179  16.828  0.00  0.00     0.010 A 
HETATM   15  C   UNK N   1      14.445  13.340  17.921  0.00  0.00    -0.030 A 
HETATM   16  C   UNK N   1      13.813  13.588  19.144  0.00  0.00     0.010 A 
HETATM   17  C   UNK N   1      12.902  14.636  19.269  0.00  0.00     0.017 A 
BRANCH  15  18
HETATM   18  C   UNK N   1      15.387  12.172  17.779  0.00  0.00     0.311 C 
BRANCH  18  19
HETATM   19  N   UNK N   1      16.744  12.652  17.437  0.00  0.00     0.096 N 
HETATM   20  C   UNK N   1      17.678  12.399  18.551  0.00  0.00     0.303 C 
HETATM   21  C   UNK N   1      19.084  12.888  18.180  0.00  0.00     0.302 C 
HETATM   22  N   UNK N   1      19.552  12.184  16.974  0.00  0.00     0.087 N 
HETATM   23  C   UNK N   1      18.636  12.450  15.851  0.00  0.00     0.302 C 
HETATM   24  C   UNK N   1      20.920  12.594  16.627  0.00  0.00     0.310 C 
HETATM   25  C   UNK N   1      17.228  11.972  16.211  0.00  0.00     0.303 C 
ENDBRANCH  18  19
ENDBRANCH  15  18
ENDBRANCH   9  12
ENDBRANCH   1   8
BRANCH   2  26
HETATM   26  N   UNK N   1       7.631  20.301  18.967  0.00  0.00    -0.191 N 
HETATM   27  C   UNK N   1       7.826  20.192  20.375  0.00  0.00     0.683 A 
HETATM   28  N   UNK N   1       9.043  19.891  20.907  0.00  0.00    -0.191 N 
HETATM   29  N   UNK N   1       6.783  20.463  21.203  0.00  0.00    -0.202 N 
HETATM   30  C   UNK N   1       9.235  19.807  22.255  0.00  0.00     0.062 A 
ATOM     31  HN  UNK N   1       9.831  19.723  20.282  1.00  0.00     0.184 HD
HETATM   32  C   UNK N   1       8.147  20.062  23.109  0.00  0.00     0.048 A 
HETATM   33  C   UNK N   1       6.920  20.400  22.549  0.00  0.00     0.108 A 
ATOM     34  HN  UNK N   1       5.881  20.718  20.803  1.00  0.00     0.183 HD
HETATM   35  H   UNK N   1       6.750  20.748  18.681  0.00  0.00     0.184 HD
BRANCH  30  36
HETATM   36  C   UNK N   1      10.591  19.459  22.779  0.00  0.00     0.007 A 
HETATM   37  C   UNK N   1      11.185  20.258  23.773  0.00  0.00     0.017 A 
HETATM   38  C   UNK N   1      12.450  19.940  24.268  0.00  0.00     0.025 A 
HETATM   39  C   UNK N   1      13.129  18.828  23.760  0.00  0.00     0.005 A 
HETATM   40  N   UNK N   1      12.548  18.065  22.797  0.00  0.00    -0.369 N 
HETATM   41  C   UNK N   1      14.489  18.473  24.268  0.00  0.00     0.068 C 
HETATM   42  C   UNK N   1      11.313  18.344  22.305  0.00  0.00     0.101 A 
ATOM     43  HN  UNK N   1      13.056  17.260  22.431  1.00  0.00     0.165 HD
ENDBRANCH  30  36
ENDBRANCH   2  26
TORSDOF 6
ENDMDL
