MODEL 1
REMARK VINA RESULT:     -10.7      0.000      0.000
REMARK  6 active torsions:
REMARK  status: ('A' for Active; 'I' for Inactive)
REMARK    1  A    between atoms: N_2  and  C_16 
REMARK       I    between atoms: N_4  and  C_24 
REMARK    2  A    between atoms: N_4  and  C_25 
REMARK    3  A    between atoms: N_5  and  C_26 
REMARK       I    between atoms: N_5  and  C_32 
REMARK    4  A    between atoms: C_16  and  C_18 
REMARK    5  A    between atoms: C_23  and  C_24 
REMARK    6  A    between atoms: C_33  and  C_34 
ROOT
HETATM    1  C   UNK N   1      10.877  17.770  16.900  0.00  0.00     0.037 A 
HETATM    2  C   UNK N   1       9.108  19.147  17.801  0.00  0.00     0.057 A 
HETATM    3  C   UNK N   1      10.034  18.116  17.956  0.00  0.00     0.060 A 
HETATM    4  C   UNK N   1       9.025  19.833  16.590  0.00  0.00    -0.035 A 
HETATM    5  C   UNK N   1      10.794  18.455  15.688  0.00  0.00     0.030 A 
HETATM    6  C   UNK N   1       9.868  19.487  15.533  0.00  0.00     0.011 A 
HETATM    7  C   UNK N   1       8.043  20.942  16.395  0.00  0.00     0.050 C 
ENDROOT
BRANCH   1   8
HETATM    8  N   UNK N   1      11.816  16.722  17.058  0.00  0.00    -0.323 N 
HETATM    9  C   UNK N   1      12.102  15.970  18.206  0.00  0.00     0.256 C 
HETATM   10  O   UNK N   1      11.550  16.116  19.309  0.00  0.00    -0.267 OA
HETATM   11  H   UNK N   1      12.361  16.542  16.219  0.00  0.00     0.169 HD
BRANCH   9  12
HETATM   12  C   UNK N   1      13.109  14.933  18.051  0.00  0.00     0.032 A 
HETATM   13  C   UNK N   1      14.073  15.041  17.049  0.00  0.00     0.017 A 
HETATM   14  C   UNK N   1      15.039  14.046  16.900  0.00  0.00     0.010 A 
HETATM   15  C   UNK N   1      15.042  12.944  17.754  0.00  0.00    -0.030 A 
HETATM   16  C   UNK N   1      14.079  12.835  18.757  0.00  0.00     0.010 A 
HETATM   17  C   UNK N   1      13.112  13.831  18.906  0.00  0.00     0.017 A 
BRANCH  15  18
HETATM   18  C   UNK N   1      16.085  11.869  17.593  0.00  0.00     0.311 C 
BRANCH  18  19
HETATM   19  N   UNK N   1      17.336  12.402  17.058  0.00  0.00     0.096 N 
HETATM   20  C   UNK N   1      17.693  11.734  15.801  0.00  0.00     0.303 C 
HETATM   21  C   UNK N   1      19.006  12.291  15.240  0.00  0.00     0.302 C 
HETATM   22  N   UNK N   1      20.091  12.154  16.218  0.00  0.00     0.087 N 
HETATM   23  C   UNK N   1      19.736  12.820  17.477  0.00  0.00     0.302 C 
HETATM   24  C   UNK N   1      21.343  12.688  15.684  0.00  0.00     0.310 C 
HETATM   25  C   UNK N   1      18.422  12.263  18.037  0.00  0.00     0.303 C 
ENDBRANCH  18  19
ENDBRANCH  15  18
ENDBRANCH   9  12
ENDBRANCH   1   8
BRANCH   2  26
HETATM   26  N   UNK N   1       8.264  19.486  18.881  0.00  0.00    -0.191 N 
HETATM   27  C   UNK N   1       8.465  19.517  20.273  0.00  0.00     0.683 A 
HETATM   28  N   UNK N   1       9.687  19.161  20.712  0.00  0.00    -0.191 N 
HETATM   29  N   UNK N   1       7.414  19.899  21.025  0.00  0.00    -0.202 N 
HETATM   30  C   UNK N   1       9.846  19.202  22.052  0.00  0.00     0.062 A 
ATOM     31  HN  UNK N   1      10.438  18.883  20.081  1.00  0.00     0.184 HD
HETATM   32  C   UNK N   1       8.848  19.575  22.930  0.00  0.00     0.048 A 
HETATM   33  C   UNK N   1       7.642  19.916  22.355  0.00  0.00     0.108 A 
ATOM     34  HN  UNK N   1       6.514  20.155  20.619  1.00  0.00     0.183 HD
HETATM   35  H   UNK N   1       7.360  19.862  18.617  0.00  0.00     0.184 HD
BRANCH  30  36
HETATM   36  C   UNK N   1      11.154  18.821  22.526  0.00  0.00     0.007 A 
HETATM   37  C   UNK N   1      11.541  19.069  23.839  0.00  0.00     0.016 A 
HETATM   38  C   UNK N   1      12.808  18.692  24.268  0.00  0.00     0.018 A 
HETATM   39  C   UNK N   1      13.645  18.073  23.352  0.00  0.00     0.087 A 
HETATM   40  N   UNK N   1      13.304  17.815  22.070  0.00  0.00    -0.374 N 
HETATM   41  C   UNK N   1      12.065  18.197  21.689  0.00  0.00     0.101 A 
ATOM     42  HN  UNK N   1      13.948  17.358  21.424  1.00  0.00     0.164 HD
ENDBRANCH  30  36
ENDBRANCH   2  26
TORSDOF 6
ENDMDL
MODEL 2
REMARK VINA RESULT:      -9.5      2.498     11.340
REMARK  6 active torsions:
REMARK  status: ('A' for Active; 'I' for Inactive)
REMARK    1  A    between atoms: N_2  and  C_16 
REMARK       I    between atoms: N_4  and  C_24 
REMARK    2  A    between atoms: N_4  and  C_25 
REMARK    3  A    between atoms: N_5  and  C_26 
REMARK       I    between atoms: N_5  and  C_32 
REMARK    4  A    between atoms: C_16  and  C_18 
REMARK    5  A    between atoms: C_23  and  C_24 
REMARK    6  A    between atoms: C_33  and  C_34 
ROOT
HETATM    1  C   UNK N   1      13.360  13.871  19.014  0.00  0.00     0.037 A 
HETATM    2  C   UNK N   1      15.596  13.063  19.438  0.00  0.00     0.057 A 
HETATM    3  C   UNK N   1      14.707  14.124  19.269  0.00  0.00     0.060 A 
HETATM    4  C   UNK N   1      15.138  11.749  19.350  0.00  0.00    -0.035 A 
HETATM    5  C   UNK N   1      12.901  12.557  18.925  0.00  0.00     0.030 A 
HETATM    6  C   UNK N   1      13.790  11.496  19.094  0.00  0.00     0.011 A 
HETATM    7  C   UNK N   1      16.068  10.593  19.527  0.00  0.00     0.050 C 
ENDROOT
BRANCH   1   8
HETATM    8  N   UNK N   1      12.457  14.949  18.841  0.00  0.00    -0.323 N 
HETATM    9  C   UNK N   1      12.370  15.853  17.773  0.00  0.00     0.256 C 
HETATM   10  O   UNK N   1      13.104  15.846  16.772  0.00  0.00    -0.267 OA
HETATM   11  H   UNK N   1      11.828  15.076  19.630  0.00  0.00     0.169 HD
BRANCH   9  12
HETATM   12  C   UNK N   1      11.312  16.846  17.867  0.00  0.00     0.032 A 
HETATM   13  C   UNK N   1      10.609  17.006  19.062  0.00  0.00     0.017 A 
HETATM   14  C   UNK N   1       9.594  17.958  19.152  0.00  0.00     0.010 A 
HETATM   15  C   UNK N   1       9.283  18.752  18.049  0.00  0.00    -0.030 A 
HETATM   16  C   UNK N   1       9.986  18.594  16.855  0.00  0.00     0.010 A 
HETATM   17  C   UNK N   1      11.002  17.641  16.765  0.00  0.00     0.017 A 
BRANCH  15  18
HETATM   18  C   UNK N   1       8.187  19.780  18.146  0.00  0.00     0.311 C 
BRANCH  18  19
HETATM   19  N   UNK N   1       8.085  20.340  19.493  0.00  0.00     0.096 N 
HETATM   20  C   UNK N   1       6.726  20.830  19.753  0.00  0.00     0.303 C 
HETATM   21  C   UNK N   1       6.619  21.419  21.164  0.00  0.00     0.302 C 
HETATM   22  N   UNK N   1       7.598  22.496  21.357  0.00  0.00     0.087 N 
HETATM   23  C   UNK N   1       8.957  22.008  21.095  0.00  0.00     0.302 C 
HETATM   24  C   UNK N   1       7.497  23.055  22.704  0.00  0.00     0.310 C 
HETATM   25  C   UNK N   1       9.064  21.419  19.684  0.00  0.00     0.303 C 
ENDBRANCH  18  19
ENDBRANCH  15  18
ENDBRANCH   9  12
ENDBRANCH   1   8
BRANCH   2  26
HETATM   26  N   UNK N   1      16.957  13.337  19.698  0.00  0.00    -0.191 N 
HETATM   27  C   UNK N   1      18.126  13.161  18.936  0.00  0.00     0.683 A 
HETATM   28  N   UNK N   1      17.969  12.630  17.708  0.00  0.00    -0.191 N 
HETATM   29  N   UNK N   1      19.283  13.542  19.511  0.00  0.00    -0.202 N 
HETATM   30  C   UNK N   1      19.110  12.476  17.004  0.00  0.00     0.062 A 
ATOM     31  HN  UNK N   1      17.057  12.365  17.337  1.00  0.00     0.184 HD
HETATM   32  C   UNK N   1      20.358  12.826  17.480  0.00  0.00     0.048 A 
HETATM   33  C   UNK N   1      20.383  13.358  18.752  0.00  0.00     0.108 A 
ATOM     34  HN  UNK N   1      19.324  13.938  20.449  1.00  0.00     0.183 HD
HETATM   35  H   UNK N   1      17.137  13.833  20.564  0.00  0.00     0.184 HD
BRANCH  30  36
HETATM   36  C   UNK N   1      18.946  11.907  15.688  0.00  0.00     0.007 A 
HETATM   37  C   UNK N   1      20.048  11.601  14.897  0.00  0.00     0.016 A 
HETATM   38  C   UNK N   1      19.859  11.054  13.633  0.00  0.00     0.018 A 
HETATM   39  C   UNK N   1      18.558  10.833  13.210  0.00  0.00     0.087 A 
HETATM   40  N   UNK N   1      17.463  11.116  13.950  0.00  0.00    -0.374 N 
HETATM   41  C   UNK N   1      17.686  11.647  15.173  0.00  0.00     0.101 A 
ATOM     42  HN  UNK N   1      16.520  10.939  13.604  1.00  0.00     0.164 HD
ENDBRANCH  30  36
ENDBRANCH   2  26
TORSDOF 6
ENDMDL
MODEL 3
REMARK VINA RESULT:      -9.2      1.678      1.883
REMARK  6 active torsions:
REMARK  status: ('A' for Active; 'I' for Inactive)
REMARK    1  A    between atoms: N_2  and  C_16 
REMARK       I    between atoms: N_4  and  C_24 
REMARK    2  A    between atoms: N_4  and  C_25 
REMARK    3  A    between atoms: N_5  and  C_26 
REMARK       I    between atoms: N_5  and  C_32 
REMARK    4  A    between atoms: C_16  and  C_18 
REMARK    5  A    between atoms: C_23  and  C_24 
REMARK    6  A    between atoms: C_33  and  C_34 
ROOT
HETATM    1  C   UNK N   1      10.668  18.251  17.248  0.00  0.00     0.037 A 
HETATM    2  C   UNK N   1       8.815  19.537  18.113  0.00  0.00     0.057 A 
HETATM    3  C   UNK N   1       9.687  18.454  18.218  0.00  0.00     0.060 A 
HETATM    4  C   UNK N   1       8.923  20.417  17.037  0.00  0.00    -0.035 A 
HETATM    5  C   UNK N   1      10.777  19.131  16.171  0.00  0.00     0.030 A 
HETATM    6  C   UNK N   1       9.905  20.215  16.066  0.00  0.00     0.011 A 
HETATM    7  C   UNK N   1       8.003  21.586  16.899  0.00  0.00     0.050 C 
ENDROOT
BRANCH   1   8
HETATM    8  N   UNK N   1      11.553  17.150  17.354  0.00  0.00    -0.323 N 
HETATM    9  C   UNK N   1      11.816  16.346  18.472  0.00  0.00     0.256 C 
HETATM   10  O   UNK N   1      11.289  16.483  19.588  0.00  0.00    -0.267 OA
HETATM   11  H   UNK N   1      12.074  16.971  16.501  0.00  0.00     0.169 HD
BRANCH   9  12
HETATM   12  C   UNK N   1      12.764  15.263  18.266  0.00  0.00     0.032 A 
HETATM   13  C   UNK N   1      13.559  15.241  17.119  0.00  0.00     0.017 A 
HETATM   14  C   UNK N   1      14.468  14.203  16.921  0.00  0.00     0.010 A 
HETATM   15  C   UNK N   1      14.584  13.187  17.869  0.00  0.00    -0.030 A 
HETATM   16  C   UNK N   1      13.791  13.209  19.015  0.00  0.00     0.010 A 
HETATM   17  C   UNK N   1      12.881  14.248  19.214  0.00  0.00     0.017 A 
BRANCH  15  18
HETATM   18  C   UNK N   1      15.566  12.065  17.655  0.00  0.00     0.311 C 
BRANCH  18  19
HETATM   19  N   UNK N   1      16.880  12.563  17.249  0.00  0.00     0.096 N 
HETATM   20  C   UNK N   1      17.340  11.888  16.029  0.00  0.00     0.303 C 
HETATM   21  C   UNK N   1      18.717  12.409  15.605  0.00  0.00     0.302 C 
HETATM   22  N   UNK N   1      19.696  12.237  16.685  0.00  0.00     0.087 N 
HETATM   23  C   UNK N   1      19.237  12.909  17.906  0.00  0.00     0.302 C 
HETATM   24  C   UNK N   1      21.010  12.735  16.280  0.00  0.00     0.310 C 
HETATM   25  C   UNK N   1      17.858  12.389  18.330  0.00  0.00     0.303 C 
ENDBRANCH  18  19
ENDBRANCH  15  18
ENDBRANCH   9  12
ENDBRANCH   1   8
BRANCH   2  26
HETATM   26  N   UNK N   1       7.828  19.729  19.106  0.00  0.00    -0.191 N 
HETATM   27  C   UNK N   1       7.867  20.307  20.387  0.00  0.00     0.683 A 
HETATM   28  N   UNK N   1       9.058  20.786  20.794  0.00  0.00    -0.191 N 
HETATM   29  N   UNK N   1       6.710  20.322  21.077  0.00  0.00    -0.202 N 
HETATM   30  C   UNK N   1       9.060  21.335  22.027  0.00  0.00     0.062 A 
ATOM     31  HN  UNK N   1       9.896  20.741  20.214  1.00  0.00     0.184 HD
HETATM   32  C   UNK N   1       7.942  21.411  22.834  0.00  0.00     0.048 A 
HETATM   33  C   UNK N   1       6.785  20.883  22.302  0.00  0.00     0.108 A 
ATOM     34  HN  UNK N   1       5.844  19.938  20.702  1.00  0.00     0.183 HD
HETATM   35  H   UNK N   1       6.884  19.484  18.825  0.00  0.00     0.184 HD
BRANCH  30  36
HETATM   36  C   UNK N   1      10.335  21.850  22.467  0.00  0.00     0.007 A 
HETATM   37  C   UNK N   1      10.624  23.208  22.391  0.00  0.00     0.016 A 
HETATM   38  C   UNK N   1      11.860  23.675  22.822  0.00  0.00     0.018 A 
HETATM   39  C   UNK N   1      12.765  22.750  23.319  0.00  0.00     0.087 A 
HETATM   40  N   UNK N   1      12.520  21.424  23.409  0.00  0.00    -0.374 N 
HETATM   41  C   UNK N   1      11.308  21.007  22.980  0.00  0.00     0.101 A 
ATOM     42  HN  UNK N   1      13.212  20.773  23.780  1.00  0.00     0.164 HD
ENDBRANCH  30  36
ENDBRANCH   2  26
TORSDOF 6
ENDMDL
MODEL 4
REMARK VINA RESULT:      -8.0      2.159      4.429
REMARK  6 active torsions:
REMARK  status: ('A' for Active; 'I' for Inactive)
REMARK    1  A    between atoms: N_2  and  C_16 
REMARK       I    between atoms: N_4  and  C_24 
REMARK    2  A    between atoms: N_4  and  C_25 
REMARK    3  A    between atoms: N_5  and  C_26 
REMARK       I    between atoms: N_5  and  C_32 
REMARK    4  A    between atoms: C_16  and  C_18 
REMARK    5  A    between atoms: C_23  and  C_24 
REMARK    6  A    between atoms: C_33  and  C_34 
ROOT
HETATM    1  C   UNK N   1      12.616  15.471  17.721  0.00  0.00     0.037 A 
HETATM    2  C   UNK N   1      10.882  16.594  18.973  0.00  0.00     0.057 A 
HETATM    3  C   UNK N   1      12.126  15.965  18.930  0.00  0.00     0.060 A 
HETATM    4  C   UNK N   1      10.128  16.730  17.808  0.00  0.00    -0.035 A 
HETATM    5  C   UNK N   1      11.862  15.606  16.555  0.00  0.00     0.030 A 
HETATM    6  C   UNK N   1      10.619  16.236  16.598  0.00  0.00     0.011 A 
HETATM    7  C   UNK N   1       8.793  17.400  17.825  0.00  0.00     0.050 C 
ENDROOT
BRANCH   1   8
HETATM    8  N   UNK N   1      13.879  14.830  17.677  0.00  0.00    -0.323 N 
HETATM    9  C   UNK N   1      14.224  13.550  18.131  0.00  0.00     0.256 C 
HETATM   10  O   UNK N   1      13.441  12.747  18.663  0.00  0.00    -0.267 OA
HETATM   11  H   UNK N   1      14.614  15.419  17.294  0.00  0.00     0.169 HD
BRANCH   9  12
HETATM   12  C   UNK N   1      15.609  13.155  17.923  0.00  0.00     0.032 A 
HETATM   13  C   UNK N   1      16.473  13.045  19.012  0.00  0.00     0.017 A 
HETATM   14  C   UNK N   1      17.801  12.667  18.813  0.00  0.00     0.010 A 
HETATM   15  C   UNK N   1      18.264  12.398  17.526  0.00  0.00    -0.030 A 
HETATM   16  C   UNK N   1      17.400  12.507  16.437  0.00  0.00     0.010 A 
HETATM   17  C   UNK N   1      16.071  12.885  16.636  0.00  0.00     0.017 A 
BRANCH  15  18
HETATM   18  C   UNK N   1      19.698  11.990  17.311  0.00  0.00     0.311 C 
BRANCH  18  19
HETATM   19  N   UNK N   1      20.114  12.180  15.922  0.00  0.00     0.096 N 
HETATM   20  C   UNK N   1      19.735  11.024  15.101  0.00  0.00     0.303 C 
HETATM   21  C   UNK N   1      20.172  11.222  13.646  0.00  0.00     0.302 C 
HETATM   22  N   UNK N   1      21.619  11.458  13.562  0.00  0.00     0.087 N 
HETATM   23  C   UNK N   1      22.000  12.612  14.385  0.00  0.00     0.302 C 
HETATM   24  C   UNK N   1      22.035  11.648  12.174  0.00  0.00     0.310 C 
HETATM   25  C   UNK N   1      21.562  12.414  15.840  0.00  0.00     0.303 C 
ENDBRANCH  18  19
ENDBRANCH  15  18
ENDBRANCH   9  12
ENDBRANCH   1   8
BRANCH   2  26
HETATM   26  N   UNK N   1      10.402  17.091  20.205  0.00  0.00    -0.191 N 
HETATM   27  C   UNK N   1       9.586  18.188  20.536  0.00  0.00     0.683 A 
HETATM   28  N   UNK N   1       9.153  18.946  19.511  0.00  0.00    -0.191 N 
HETATM   29  N   UNK N   1       9.323  18.369  21.845  0.00  0.00    -0.202 N 
HETATM   30  C   UNK N   1       8.373  19.989  19.863  0.00  0.00     0.062 A 
ATOM     31  HN  UNK N   1       9.394  18.747  18.540  1.00  0.00     0.184 HD
HETATM   32  C   UNK N   1       8.030  20.283  21.168  0.00  0.00     0.048 A 
HETATM   33  C   UNK N   1       8.538  19.430  22.126  0.00  0.00     0.108 A 
ATOM     34  HN  UNK N   1       9.688  17.750  22.568  1.00  0.00     0.183 HD
HETATM   35  H   UNK N   1      10.605  16.509  21.010  0.00  0.00     0.184 HD
BRANCH  30  36
HETATM   36  C   UNK N   1       7.907  20.804  18.768  0.00  0.00     0.007 A 
HETATM   37  C   UNK N   1       8.637  20.907  17.589  0.00  0.00     0.016 A 
HETATM   38  C   UNK N   1       8.163  21.699  16.550  0.00  0.00     0.018 A 
HETATM   39  C   UNK N   1       6.961  22.364  16.739  0.00  0.00     0.087 A 
HETATM   40  N   UNK N   1       6.224  22.289  17.869  0.00  0.00    -0.374 N 
HETATM   41  C   UNK N   1       6.716  21.509  18.857  0.00  0.00     0.101 A 
ATOM     42  HN  UNK N   1       5.343  22.793  17.971  1.00  0.00     0.164 HD
ENDBRANCH  30  36
ENDBRANCH   2  26
TORSDOF 6
ENDMDL
