MODEL 1
REMARK VINA RESULT:     -10.7      0.000      0.000
REMARK  6 active torsions:
REMARK  status: ('A' for Active; 'I' for Inactive)
REMARK    1  A    between atoms: N_2  and  C_16 
REMARK       I    between atoms: N_4  and  C_24 
REMARK    2  A    between atoms: N_4  and  C_25 
REMARK    3  A    between atoms: N_5  and  C_26 
REMARK       I    between atoms: N_5  and  C_32 
REMARK    4  A    between atoms: C_16  and  C_18 
REMARK    5  A    between atoms: C_23  and  C_24 
REMARK    6  A    between atoms: C_33  and  C_34 
ROOT
HETATM    1  C   UNK N   1      10.909  17.764  16.898  0.00  0.00     0.037 A 
HETATM    2  C   UNK N   1       9.140  19.144  17.794  0.00  0.00     0.057 A 
HETATM    3  C   UNK N   1      10.064  18.112  17.952  0.00  0.00     0.060 A 
HETATM    4  C   UNK N   1       9.060  19.828  16.581  0.00  0.00    -0.035 A 
HETATM    5  C   UNK N   1      10.828  18.448  15.685  0.00  0.00     0.030 A 
HETATM    6  C   UNK N   1       9.904  19.481  15.527  0.00  0.00     0.011 A 
HETATM    7  C   UNK N   1       8.079  20.938  16.384  0.00  0.00     0.050 C 
ENDROOT
BRANCH   1   8
HETATM    8  N   UNK N   1      11.847  16.714  17.058  0.00  0.00    -0.323 N 
HETATM    9  C   UNK N   1      12.108  15.944  18.199  0.00  0.00     0.256 C 
HETATM   10  O   UNK N   1      11.531  16.069  19.291  0.00  0.00    -0.267 OA
HETATM   11  H   UNK N   1      12.411  16.551  16.228  0.00  0.00     0.169 HD
BRANCH   9  12
HETATM   12  C   UNK N   1      13.121  14.910  18.049  0.00  0.00     0.032 A 
HETATM   13  C   UNK N   1      14.074  15.011  17.036  0.00  0.00     0.017 A 
HETATM   14  C   UNK N   1      15.045  14.021  16.892  0.00  0.00     0.010 A 
HETATM   15  C   UNK N   1      15.065  12.930  17.761  0.00  0.00    -0.030 A 
HETATM   16  C   UNK N   1      14.113  12.830  18.775  0.00  0.00     0.010 A 
HETATM   17  C   UNK N   1      13.140  13.821  18.920  0.00  0.00     0.017 A 
BRANCH  15  18
HETATM   18  C   UNK N   1      16.115  11.863  17.608  0.00  0.00     0.311 C 
BRANCH  18  19
HETATM   19  N   UNK N   1      17.362  12.400  17.067  0.00  0.00     0.096 N 
HETATM   20  C   UNK N   1      18.451  12.273  18.044  0.00  0.00     0.303 C 
HETATM   21  C   UNK N   1      19.760  12.833  17.478  0.00  0.00     0.302 C 
HETATM   22  N   UNK N   1      20.117  12.162  16.222  0.00  0.00     0.087 N 
HETATM   23  C   UNK N   1      19.027  12.288  15.246  0.00  0.00     0.302 C 
HETATM   24  C   UNK N   1      21.363  12.701  15.681  0.00  0.00     0.310 C 
HETATM   25  C   UNK N   1      17.719  11.726  15.813  0.00  0.00     0.303 C 
ENDBRANCH  18  19
ENDBRANCH  15  18
ENDBRANCH   9  12
ENDBRANCH   1   8
BRANCH   2  26
HETATM   26  N   UNK N   1       8.294  19.484  18.872  0.00  0.00    -0.191 N 
HETATM   27  C   UNK N   1       8.493  19.516  20.265  0.00  0.00     0.683 A 
HETATM   28  N   UNK N   1       9.714  19.159  20.706  0.00  0.00    -0.191 N 
HETATM   29  N   UNK N   1       7.441  19.899  21.014  0.00  0.00    -0.202 N 
HETATM   30  C   UNK N   1       9.869  19.201  22.046  0.00  0.00     0.062 A 
ATOM     31  HN  UNK N   1      10.464  18.878  20.075  1.00  0.00     0.184 HD
HETATM   32  C   UNK N   1       8.871  19.576  22.923  0.00  0.00     0.048 A 
HETATM   33  C   UNK N   1       7.666  19.918  22.344  0.00  0.00     0.108 A 
ATOM     34  HN  UNK N   1       6.542  20.156  20.606  1.00  0.00     0.183 HD
HETATM   35  H   UNK N   1       7.390  19.862  18.606  0.00  0.00     0.184 HD
BRANCH  30  36
HETATM   36  C   UNK N   1      11.176  18.819  22.523  0.00  0.00     0.007 A 
HETATM   37  C   UNK N   1      11.563  19.073  23.835  0.00  0.00     0.016 A 
HETATM   38  C   UNK N   1      12.829  18.693  24.266  0.00  0.00     0.018 A 
HETATM   39  C   UNK N   1      13.664  18.067  23.355  0.00  0.00     0.087 A 
HETATM   40  N   UNK N   1      13.324  17.804  22.073  0.00  0.00    -0.374 N 
HETATM   41  C   UNK N   1      12.086  18.188  21.690  0.00  0.00     0.101 A 
ATOM     42  HN  UNK N   1      13.966  17.341  21.430  1.00  0.00     0.164 HD
ENDBRANCH  30  36
ENDBRANCH   2  26
TORSDOF 6
ENDMDL
MODEL 2
REMARK VINA RESULT:      -9.5      2.512     11.326
REMARK  6 active torsions:
REMARK  status: ('A' for Active; 'I' for Inactive)
REMARK    1  A    between atoms: N_2  and  C_16 
REMARK       I    between atoms: N_4  and  C_24 
REMARK    2  A    between atoms: N_4  and  C_25 
REMARK    3  A    between atoms: N_5  and  C_26 
REMARK       I    between atoms: N_5  and  C_32 
REMARK    4  A    between atoms: C_16  and  C_18 
REMARK    5  A    between atoms: C_23  and  C_24 
REMARK    6  A    between atoms: C_33  and  C_34 
ROOT
HETATM    1  C   UNK N   1      13.299  13.922  19.005  0.00  0.00     0.037 A 
HETATM    2  C   UNK N   1      15.534  13.116  19.442  0.00  0.00     0.057 A 
HETATM    3  C   UNK N   1      14.644  14.176  19.277  0.00  0.00     0.060 A 
HETATM    4  C   UNK N   1      15.081  11.801  19.334  0.00  0.00    -0.035 A 
HETATM    5  C   UNK N   1      12.846  12.607  18.897  0.00  0.00     0.030 A 
HETATM    6  C   UNK N   1      13.738  11.546  19.062  0.00  0.00     0.011 A 
HETATM    7  C   UNK N   1      16.014  10.647  19.505  0.00  0.00     0.050 C 
ENDROOT
BRANCH   1   8
HETATM    8  N   UNK N   1      12.394  14.999  18.836  0.00  0.00    -0.323 N 
HETATM    9  C   UNK N   1      12.306  15.907  17.772  0.00  0.00     0.256 C 
HETATM   10  O   UNK N   1      13.040  15.904  16.771  0.00  0.00    -0.267 OA
HETATM   11  H   UNK N   1      11.766  15.121  19.626  0.00  0.00     0.169 HD
BRANCH   9  12
HETATM   12  C   UNK N   1      11.246  16.898  17.869  0.00  0.00     0.032 A 
HETATM   13  C   UNK N   1      10.513  17.021  19.049  0.00  0.00     0.017 A 
HETATM   14  C   UNK N   1       9.497  17.972  19.143  0.00  0.00     0.010 A 
HETATM   15  C   UNK N   1       9.215  18.800  18.057  0.00  0.00    -0.030 A 
HETATM   16  C   UNK N   1       9.948  18.678  16.878  0.00  0.00     0.010 A 
HETATM   17  C   UNK N   1      10.965  17.727  16.783  0.00  0.00     0.017 A 
BRANCH  15  18
HETATM   18  C   UNK N   1       8.120  19.828  18.159  0.00  0.00     0.311 C 
BRANCH  18  19
HETATM   19  N   UNK N   1       8.020  20.385  19.507  0.00  0.00     0.096 N 
HETATM   20  C   UNK N   1       9.035  21.425  19.718  0.00  0.00     0.303 C 
HETATM   21  C   UNK N   1       8.931  22.011  21.129  0.00  0.00     0.302 C 
HETATM   22  N   UNK N   1       7.588  22.550  21.374  0.00  0.00     0.087 N 
HETATM   23  C   UNK N   1       6.572  21.512  21.162  0.00  0.00     0.302 C 
HETATM   24  C   UNK N   1       7.489  23.105  22.722  0.00  0.00     0.310 C 
HETATM   25  C   UNK N   1       6.677  20.926  19.749  0.00  0.00     0.303 C 
ENDBRANCH  18  19
ENDBRANCH  15  18
ENDBRANCH   9  12
ENDBRANCH   1   8
BRANCH   2  26
HETATM   26  N   UNK N   1      16.892  13.392  19.718  0.00  0.00    -0.191 N 
HETATM   27  C   UNK N   1      18.071  13.206  18.972  0.00  0.00     0.683 A 
HETATM   28  N   UNK N   1      17.929  12.660  17.750  0.00  0.00    -0.191 N 
HETATM   29  N   UNK N   1      19.220  13.592  19.559  0.00  0.00    -0.202 N 
HETATM   30  C   UNK N   1      19.079  12.496  17.063  0.00  0.00     0.062 A 
ATOM     31  HN  UNK N   1      17.021  12.391  17.371  1.00  0.00     0.184 HD
HETATM   32  C   UNK N   1      20.321  12.851  17.551  0.00  0.00     0.048 A 
HETATM   33  C   UNK N   1      20.330  13.399  18.817  0.00  0.00     0.108 A 
ATOM     34  HN  UNK N   1      19.249  14.000  20.493  1.00  0.00     0.183 HD
HETATM   35  H   UNK N   1      17.060  13.899  20.581  0.00  0.00     0.184 HD
BRANCH  30  36
HETATM   36  C   UNK N   1      18.932  11.911  15.752  0.00  0.00     0.007 A 
HETATM   37  C   UNK N   1      20.045  11.561  14.995  0.00  0.00     0.016 A 
HETATM   38  C   UNK N   1      19.872  10.999  13.734  0.00  0.00     0.018 A 
HETATM   39  C   UNK N   1      18.576  10.809  13.281  0.00  0.00     0.087 A 
HETATM   40  N   UNK N   1      17.471  11.138  13.988  0.00  0.00    -0.374 N 
HETATM   41  C   UNK N   1      17.679  11.681  15.208  0.00  0.00     0.101 A 
ATOM     42  HN  UNK N   1      16.532  10.983  13.621  1.00  0.00     0.164 HD
ENDBRANCH  30  36
ENDBRANCH   2  26
TORSDOF 6
ENDMDL
MODEL 3
REMARK VINA RESULT:      -9.2      1.696      2.062
REMARK  6 active torsions:
REMARK  status: ('A' for Active; 'I' for Inactive)
REMARK    1  A    between atoms: N_2  and  C_16 
REMARK       I    between atoms: N_4  and  C_24 
REMARK    2  A    between atoms: N_4  and  C_25 
REMARK    3  A    between atoms: N_5  and  C_26 
REMARK       I    between atoms: N_5  and  C_32 
REMARK    4  A    between atoms: C_16  and  C_18 
REMARK    5  A    between atoms: C_23  and  C_24 
REMARK    6  A    between atoms: C_33  and  C_34 
ROOT
HETATM    1  C   UNK N   1      10.547  18.319  17.245  0.00  0.00     0.037 A 
HETATM    2  C   UNK N   1       8.698  19.608  18.113  0.00  0.00     0.057 A 
HETATM    3  C   UNK N   1       9.575  18.529  18.223  0.00  0.00     0.060 A 
HETATM    4  C   UNK N   1       8.792  20.476  17.025  0.00  0.00    -0.035 A 
HETATM    5  C   UNK N   1      10.641  19.187  16.156  0.00  0.00     0.030 A 
HETATM    6  C   UNK N   1       9.764  20.266  16.047  0.00  0.00     0.011 A 
HETATM    7  C   UNK N   1       7.865  21.638  16.882  0.00  0.00     0.050 C 
ENDROOT
BRANCH   1   8
HETATM    8  N   UNK N   1      11.438  17.222  17.355  0.00  0.00    -0.323 N 
HETATM    9  C   UNK N   1      11.811  16.513  18.505  0.00  0.00     0.256 C 
HETATM   10  O   UNK N   1      11.397  16.747  19.652  0.00  0.00    -0.267 OA
HETATM   11  H   UNK N   1      11.873  16.969  16.471  0.00  0.00     0.169 HD
BRANCH   9  12
HETATM   12  C   UNK N   1      12.734  15.408  18.297  0.00  0.00     0.032 A 
HETATM   13  C   UNK N   1      12.845  14.403  19.257  0.00  0.00     0.017 A 
HETATM   14  C   UNK N   1      13.728  13.343  19.058  0.00  0.00     0.010 A 
HETATM   15  C   UNK N   1      14.501  13.287  17.898  0.00  0.00    -0.030 A 
HETATM   16  C   UNK N   1      14.390  14.291  16.938  0.00  0.00     0.010 A 
HETATM   17  C   UNK N   1      13.505  15.353  17.136  0.00  0.00     0.017 A 
BRANCH  15  18
HETATM   18  C   UNK N   1      15.453  12.141  17.681  0.00  0.00     0.311 C 
BRANCH  18  19
HETATM   19  N   UNK N   1      16.786  12.606  17.301  0.00  0.00     0.096 N 
HETATM   20  C   UNK N   1      17.740  12.409  18.399  0.00  0.00     0.303 C 
HETATM   21  C   UNK N   1      19.138  12.894  18.001  0.00  0.00     0.302 C 
HETATM   22  N   UNK N   1      19.604  12.210  16.788  0.00  0.00     0.087 N 
HETATM   23  C   UNK N   1      18.648  12.406  15.690  0.00  0.00     0.302 C 
HETATM   24  C   UNK N   1      20.935  12.676  16.407  0.00  0.00     0.310 C 
HETATM   25  C   UNK N   1      17.251  11.920  16.089  0.00  0.00     0.303 C 
ENDBRANCH  18  19
ENDBRANCH  15  18
ENDBRANCH   9  12
ENDBRANCH   1   8
BRANCH   2  26
HETATM   26  N   UNK N   1       7.721  19.807  19.113  0.00  0.00    -0.191 N 
HETATM   27  C   UNK N   1       7.780  20.364  20.404  0.00  0.00     0.683 A 
HETATM   28  N   UNK N   1       8.983  20.808  20.813  0.00  0.00    -0.191 N 
HETATM   29  N   UNK N   1       6.626  20.396  21.098  0.00  0.00    -0.202 N 
HETATM   30  C   UNK N   1       9.004  21.335  22.055  0.00  0.00     0.062 A 
ATOM     31  HN  UNK N   1       9.817  20.749  20.228  1.00  0.00     0.184 HD
HETATM   32  C   UNK N   1       7.892  21.427  22.867  0.00  0.00     0.048 A 
HETATM   33  C   UNK N   1       6.719  20.936  22.331  0.00  0.00     0.108 A 
ATOM     34  HN  UNK N   1       5.748  20.039  20.721  1.00  0.00     0.183 HD
HETATM   35  H   UNK N   1       6.769  19.590  18.833  0.00  0.00     0.184 HD
BRANCH  30  36
HETATM   36  C   UNK N   1      10.292  21.812  22.497  0.00  0.00     0.007 A 
HETATM   37  C   UNK N   1      10.632  23.157  22.396  0.00  0.00     0.016 A 
HETATM   38  C   UNK N   1      11.881  23.587  22.831  0.00  0.00     0.018 A 
HETATM   39  C   UNK N   1      12.746  22.640  23.356  0.00  0.00     0.087 A 
HETATM   40  N   UNK N   1      12.451  21.325  23.469  0.00  0.00    -0.374 N 
HETATM   41  C   UNK N   1      11.228  20.945  23.036  0.00  0.00     0.101 A 
ATOM     42  HN  UNK N   1      13.115  20.657  23.860  1.00  0.00     0.164 HD
ENDBRANCH  30  36
ENDBRANCH   2  26
TORSDOF 6
ENDMDL
