MODEL 1
REMARK VINA RESULT:      -9.4      0.000      0.000
REMARK  6 active torsions:
REMARK  status: ('A' for Active; 'I' for Inactive)
REMARK    1  A    between atoms: N_4  and  C_18 
REMARK       I    between atoms: N_5  and  C_25 
REMARK    2  A    between atoms: N_5  and  C_26 
REMARK    3  A    between atoms: N_6  and  C_28 
REMARK       I    between atoms: N_6  and  C_33 
REMARK    4  A    between atoms: C_18  and  C_19 
REMARK    5  A    between atoms: C_24  and  C_25 
REMARK    6  A    between atoms: C_34  and  C_35 
ROOT
HETATM    1  C   UNK N   1      10.544  18.222  17.135  0.00  0.00     0.037 A 
HETATM    2  C   UNK N   1       9.671  18.588  18.191  0.00  0.00     0.060 A 
HETATM    3  C   UNK N   1       8.729  19.639  18.025  0.00  0.00     0.057 A 
HETATM    4  C   UNK N   1      10.460  18.925  15.925  0.00  0.00     0.030 A 
HETATM    5  C   UNK N   1       8.669  20.311  16.774  0.00  0.00    -0.035 A 
HETATM    6  C   UNK N   1       9.545  19.950  15.748  0.00  0.00     0.011 A 
HETATM    7  C   UNK N   1       7.683  21.422  16.520  0.00  0.00     0.050 C 
ENDROOT
BRANCH   1   8
HETATM    8  N   UNK N   1      11.498  17.146  17.202  0.00  0.00    -0.323 N 
HETATM    9  C   UNK N   1      11.823  16.370  18.287  0.00  0.00     0.256 C 
HETATM   10  O   UNK N   1      11.330  16.591  19.381  0.00  0.00    -0.267 OA
HETATM   11  H   UNK N   1      12.027  16.984  16.336  0.00  0.00     0.169 HD
BRANCH   9  12
HETATM   12  C   UNK N   1      12.852  15.280  18.166  0.00  0.00     0.032 A 
HETATM   13  C   UNK N   1      13.803  15.326  17.127  0.00  0.00     0.017 A 
HETATM   14  C   UNK N   1      14.733  14.292  16.966  0.00  0.00     0.010 A 
HETATM   15  C   UNK N   1      14.753  13.211  17.858  0.00  0.00    -0.030 A 
HETATM   16  C   UNK N   1      13.841  13.177  18.918  0.00  0.00     0.010 A 
HETATM   17  C   UNK N   1      12.893  14.190  19.066  0.00  0.00     0.017 A 
BRANCH  15  18
HETATM   18  C   UNK N   1      15.736  12.084  17.670  0.00  0.00     0.311 C 
BRANCH  18  19
HETATM   19  N   UNK N   1      17.029  12.615  17.188  0.00  0.00     0.097 N 
HETATM   20  C   UNK N   1      18.096  12.359  18.174  0.00  0.00     0.309 C 
HETATM   21  C   UNK N   1      19.435  12.920  17.662  0.00  0.00     0.341 C 
HETATM   22  N   UNK N   1      19.802  12.322  16.360  0.00  0.00     0.013 N 
HETATM   23  O   UNK N   1      19.996  10.986  16.525  0.00  0.00    -0.065 OA
HETATM   24  C   UNK N   1      18.721  12.536  15.374  0.00  0.00     0.341 C 
HETATM   25  C   UNK N   1      21.067  12.894  15.863  0.00  0.00     0.356 C 
HETATM   26  C   UNK N   1      17.385  11.988  15.892  0.00  0.00     0.309 C 
ENDBRANCH  18  19
ENDBRANCH  15  18
ENDBRANCH   9  12
ENDBRANCH   1   8
BRANCH   3  27
HETATM   27  N   UNK N   1       7.805  20.011  19.066  0.00  0.00    -0.191 N 
HETATM   28  C   UNK N   1       8.049  19.987  20.471  0.00  0.00     0.683 A 
HETATM   29  N   UNK N   1       9.302  19.827  20.977  0.00  0.00    -0.191 N 
HETATM   30  N   UNK N   1       7.008  20.199  21.319  0.00  0.00    -0.202 N 
HETATM   31  C   UNK N   1       9.540  19.828  22.319  0.00  0.00     0.062 A 
ATOM     32  HN  UNK N   1      10.085  19.702  20.334  1.00  0.00     0.184 HD
HETATM   33  C   UNK N   1       8.458  20.022  23.195  0.00  0.00     0.048 A 
HETATM   34  C   UNK N   1       7.188  20.215  22.662  0.00  0.00     0.108 A 
ATOM     35  HN  UNK N   1       6.074  20.351  20.937  1.00  0.00     0.183 HD
HETATM   36  H   UNK N   1       6.879  20.361  18.787  0.00  0.00     0.184 HD
BRANCH  31  37
HETATM   37  C   UNK N   1      10.939  19.638  22.813  0.00  0.00     0.007 A 
HETATM   38  C   UNK N   1      11.676  18.510  22.408  0.00  0.00     0.016 A 
HETATM   39  C   UNK N   1      12.984  18.327  22.857  0.00  0.00     0.018 A 
HETATM   40  C   UNK N   1      13.551  19.264  23.718  0.00  0.00     0.087 A 
HETATM   41  N   UNK N   1      12.834  20.348  24.111  0.00  0.00    -0.374 N 
HETATM   42  C   UNK N   1      11.561  20.559  23.683  0.00  0.00     0.101 A 
ATOM     43  HN  UNK N   1      13.263  21.023  24.744  1.00  0.00     0.164 HD
ENDBRANCH  31  37
ENDBRANCH   3  27
TORSDOF 6
ENDMDL
MODEL 2
REMARK VINA RESULT:      -9.3      1.776      2.427
REMARK  6 active torsions:
REMARK  status: ('A' for Active; 'I' for Inactive)
REMARK    1  A    between atoms: N_4  and  C_18 
REMARK       I    between atoms: N_5  and  C_25 
REMARK    2  A    between atoms: N_5  and  C_26 
REMARK    3  A    between atoms: N_6  and  C_28 
REMARK       I    between atoms: N_6  and  C_33 
REMARK    4  A    between atoms: C_18  and  C_19 
REMARK    5  A    between atoms: C_24  and  C_25 
REMARK    6  A    between atoms: C_34  and  C_35 
ROOT
HETATM    1  C   UNK N   1      11.260  16.921  18.548  0.00  0.00     0.037 A 
HETATM    2  C   UNK N   1      10.420  16.985  19.688  0.00  0.00     0.060 A 
HETATM    3  C   UNK N   1       9.258  17.802  19.692  0.00  0.00     0.057 A 
HETATM    4  C   UNK N   1      10.921  17.689  17.425  0.00  0.00     0.030 A 
HETATM    5  C   UNK N   1       8.946  18.549  18.524  0.00  0.00    -0.035 A 
HETATM    6  C   UNK N   1       9.790  18.489  17.412  0.00  0.00     0.011 A 
HETATM    7  C   UNK N   1       7.720  19.423  18.449  0.00  0.00     0.050 C 
ENDROOT
BRANCH   1   8
HETATM    8  N   UNK N   1      12.431  16.090  18.442  0.00  0.00    -0.323 N 
HETATM    9  C   UNK N   1      12.639  15.025  17.601  0.00  0.00     0.256 C 
HETATM   10  O   UNK N   1      11.752  14.635  16.860  0.00  0.00    -0.267 OA
HETATM   11  H   UNK N   1      13.173  16.302  19.119  0.00  0.00     0.169 HD
BRANCH   9  12
HETATM   12  C   UNK N   1      13.939  14.271  17.630  0.00  0.00     0.032 A 
HETATM   13  C   UNK N   1      14.659  14.068  16.435  0.00  0.00     0.017 A 
HETATM   14  C   UNK N   1      15.843  13.321  16.434  0.00  0.00     0.010 A 
HETATM   15  C   UNK N   1      16.349  12.793  17.630  0.00  0.00    -0.030 A 
HETATM   16  C   UNK N   1      15.665  13.025  18.828  0.00  0.00     0.010 A 
HETATM   17  C   UNK N   1      14.469  13.743  18.831  0.00  0.00     0.017 A 
BRANCH  15  18
HETATM   18  C   UNK N   1      17.609  11.966  17.627  0.00  0.00     0.311 C 
BRANCH  18  19
HETATM   19  N   UNK N   1      18.354  12.184  16.369  0.00  0.00     0.097 N 
HETATM   20  C   UNK N   1      19.806  12.225  16.625  0.00  0.00     0.309 C 
HETATM   21  C   UNK N   1      20.570  12.456  15.310  0.00  0.00     0.341 C 
HETATM   22  N   UNK N   1      20.266  11.398  14.321  0.00  0.00     0.013 N 
HETATM   23  O   UNK N   1      20.705  10.203  14.802  0.00  0.00    -0.065 OA
HETATM   24  C   UNK N   1      18.808  11.319  14.087  0.00  0.00     0.341 C 
HETATM   25  C   UNK N   1      20.974  11.651  13.054  0.00  0.00     0.356 C 
HETATM   26  C   UNK N   1      18.048  11.102  15.402  0.00  0.00     0.309 C 
ENDBRANCH  18  19
ENDBRANCH  15  18
ENDBRANCH   9  12
ENDBRANCH   1   8
BRANCH   3  27
HETATM   27  N   UNK N   1       8.366  17.861  20.821  0.00  0.00    -0.191 N 
HETATM   28  C   UNK N   1       8.520  18.667  21.988  0.00  0.00     0.683 A 
HETATM   29  N   UNK N   1       9.437  19.671  22.048  0.00  0.00    -0.191 N 
HETATM   30  N   UNK N   1       7.679  18.467  23.037  0.00  0.00    -0.202 N 
HETATM   31  C   UNK N   1       9.569  20.458  23.154  0.00  0.00     0.062 A 
ATOM     32  HN  UNK N   1      10.043  19.839  21.245  1.00  0.00     0.184 HD
HETATM   33  C   UNK N   1       8.715  20.231  24.248  0.00  0.00     0.048 A 
HETATM   34  C   UNK N   1       7.762  19.222  24.159  0.00  0.00     0.108 A 
ATOM     35  HN  UNK N   1       6.971  17.734  22.978  1.00  0.00     0.183 HD
HETATM   36  H   UNK N   1       7.509  17.294  20.790  0.00  0.00     0.184 HD
BRANCH  31  37
HETATM   37  C   UNK N   1      10.602  21.539  23.161  0.00  0.00     0.007 A 
HETATM   38  C   UNK N   1      10.237  22.856  22.825  0.00  0.00     0.016 A 
HETATM   39  C   UNK N   1      11.191  23.874  22.836  0.00  0.00     0.018 A 
HETATM   40  C   UNK N   1      12.510  23.574  23.170  0.00  0.00     0.087 A 
HETATM   41  N   UNK N   1      12.859  22.300  23.488  0.00  0.00    -0.374 N 
HETATM   42  C   UNK N   1      11.950  21.290  23.497  0.00  0.00     0.101 A 
ATOM     43  HN  UNK N   1      13.829  22.097  23.727  1.00  0.00     0.164 HD
ENDBRANCH  31  37
ENDBRANCH   3  27
TORSDOF 6
ENDMDL
MODEL 3
REMARK VINA RESULT:      -8.1      2.757     11.879
REMARK  6 active torsions:
REMARK  status: ('A' for Active; 'I' for Inactive)
REMARK    1  A    between atoms: N_4  and  C_18 
REMARK       I    between atoms: N_5  and  C_25 
REMARK    2  A    between atoms: N_5  and  C_26 
REMARK    3  A    between atoms: N_6  and  C_28 
REMARK       I    between atoms: N_6  and  C_33 
REMARK    4  A    between atoms: C_18  and  C_19 
REMARK    5  A    between atoms: C_24  and  C_25 
REMARK    6  A    between atoms: C_34  and  C_35 
ROOT
HETATM    1  C   UNK N   1      13.527  14.082  19.178  0.00  0.00     0.037 A 
HETATM    2  C   UNK N   1      14.896  14.347  19.439  0.00  0.00     0.060 A 
HETATM    3  C   UNK N   1      15.839  13.288  19.530  0.00  0.00     0.057 A 
HETATM    4  C   UNK N   1      13.125  12.748  19.019  0.00  0.00     0.030 A 
HETATM    5  C   UNK N   1      15.386  11.954  19.344  0.00  0.00    -0.035 A 
HETATM    6  C   UNK N   1      14.033  11.705  19.103  0.00  0.00     0.011 A 
HETATM    7  C   UNK N   1      16.332  10.782  19.408  0.00  0.00     0.050 C 
ENDROOT
BRANCH   1   8
HETATM    8  N   UNK N   1      12.513  15.093  19.029  0.00  0.00    -0.323 N 
HETATM    9  C   UNK N   1      12.273  15.895  17.941  0.00  0.00     0.256 C 
HETATM   10  O   UNK N   1      12.997  15.847  16.960  0.00  0.00    -0.267 OA
HETATM   11  H   UNK N   1      11.941  15.256  19.866  0.00  0.00     0.169 HD
BRANCH   9  12
HETATM   12  C   UNK N   1      11.158  16.902  17.966  0.00  0.00     0.032 A 
HETATM   13  C   UNK N   1      10.972  17.770  16.871  0.00  0.00     0.017 A 
HETATM   14  C   UNK N   1       9.973  18.751  16.900  0.00  0.00     0.010 A 
HETATM   15  C   UNK N   1       9.120  18.861  18.007  0.00  0.00    -0.030 A 
HETATM   16  C   UNK N   1       9.269  17.977  19.081  0.00  0.00     0.010 A 
HETATM   17  C   UNK N   1      10.280  17.017  19.070  0.00  0.00     0.017 A 
BRANCH  15  18
HETATM   18  C   UNK N   1       8.062  19.934  18.052  0.00  0.00     0.311 C 
BRANCH  18  19
HETATM   19  N   UNK N   1       7.665  20.195  19.452  0.00  0.00     0.097 N 
HETATM   20  C   UNK N   1       8.807  20.718  20.226  0.00  0.00     0.309 C 
HETATM   21  C   UNK N   1       8.383  20.982  21.682  0.00  0.00     0.341 C 
HETATM   22  N   UNK N   1       7.255  21.938  21.745  0.00  0.00     0.013 N 
HETATM   23  O   UNK N   1       7.664  23.138  21.252  0.00  0.00    -0.065 OA
HETATM   24  C   UNK N   1       6.119  21.444  20.938  0.00  0.00     0.341 C 
HETATM   25  C   UNK N   1       6.835  22.154  23.141  0.00  0.00     0.356 C 
HETATM   26  C   UNK N   1       6.548  21.169  19.491  0.00  0.00     0.309 C 
ENDBRANCH  18  19
ENDBRANCH  15  18
ENDBRANCH   9  12
ENDBRANCH   1   8
BRANCH   3  27
HETATM   27  N   UNK N   1      17.240  13.528  19.758  0.00  0.00    -0.191 N 
HETATM   28  C   UNK N   1      18.321  13.139  18.912  0.00  0.00     0.683 A 
HETATM   29  N   UNK N   1      18.111  12.691  17.644  0.00  0.00    -0.191 N 
HETATM   30  N   UNK N   1      19.593  13.287  19.367  0.00  0.00    -0.202 N 
HETATM   31  C   UNK N   1      19.145  12.342  16.826  0.00  0.00     0.062 A 
ATOM     32  HN  UNK N   1      17.156  12.615  17.296  1.00  0.00     0.184 HD
HETATM   33  C   UNK N   1      20.459  12.471  17.308  0.00  0.00     0.048 A 
HETATM   34  C   UNK N   1      20.658  12.959  18.595  0.00  0.00     0.108 A 
ATOM     35  HN  UNK N   1      19.750  13.652  20.307  1.00  0.00     0.183 HD
HETATM   36  H   UNK N   1      17.509  14.059  20.597  0.00  0.00     0.184 HD
BRANCH  31  37
HETATM   37  C   UNK N   1      18.849  11.849  15.446  0.00  0.00     0.007 A 
HETATM   38  C   UNK N   1      19.908  11.519  14.579  0.00  0.00     0.016 A 
HETATM   39  C   UNK N   1      19.642  11.052  13.292  0.00  0.00     0.018 A 
HETATM   40  C   UNK N   1      18.322  10.925  12.867  0.00  0.00     0.087 A 
HETATM   41  N   UNK N   1      17.303  11.251  13.704  0.00  0.00    -0.374 N 
HETATM   42  C   UNK N   1      17.529  11.699  14.967  0.00  0.00     0.101 A 
ATOM     43  HN  UNK N   1      16.342  11.156  13.376  1.00  0.00     0.164 HD
ENDBRANCH  31  37
ENDBRANCH   3  27
TORSDOF 6
ENDMDL
MODEL 4
REMARK VINA RESULT:      -7.6      1.799      2.355
REMARK  6 active torsions:
REMARK  status: ('A' for Active; 'I' for Inactive)
REMARK    1  A    between atoms: N_4  and  C_18 
REMARK       I    between atoms: N_5  and  C_25 
REMARK    2  A    between atoms: N_5  and  C_26 
REMARK    3  A    between atoms: N_6  and  C_28 
REMARK       I    between atoms: N_6  and  C_33 
REMARK    4  A    between atoms: C_18  and  C_19 
REMARK    5  A    between atoms: C_24  and  C_25 
REMARK    6  A    between atoms: C_34  and  C_35 
ROOT
HETATM    1  C   UNK N   1      10.817  17.142  18.964  0.00  0.00     0.037 A 
HETATM    2  C   UNK N   1       9.975  17.602  20.008  0.00  0.00     0.060 A 
HETATM    3  C   UNK N   1       9.069  18.676  19.793  0.00  0.00     0.057 A 
HETATM    4  C   UNK N   1      10.740  17.776  17.716  0.00  0.00     0.030 A 
HETATM    5  C   UNK N   1       9.015  19.276  18.506  0.00  0.00    -0.035 A 
HETATM    6  C   UNK N   1       9.861  18.823  17.491  0.00  0.00     0.011 A 
HETATM    7  C   UNK N   1       8.066  20.407  18.201  0.00  0.00     0.050 C 
ENDROOT
BRANCH   1   8
HETATM    8  N   UNK N   1      11.732  16.036  19.081  0.00  0.00    -0.323 N 
HETATM    9  C   UNK N   1      12.646  15.594  18.157  0.00  0.00     0.256 C 
HETATM   10  O   UNK N   1      12.716  16.111  17.054  0.00  0.00    -0.267 OA
HETATM   11  H   UNK N   1      11.643  15.493  19.948  0.00  0.00     0.169 HD
BRANCH   9  12
HETATM   12  C   UNK N   1      13.527  14.414  18.458  0.00  0.00     0.032 A 
HETATM   13  C   UNK N   1      14.034  14.233  19.761  0.00  0.00     0.017 A 
HETATM   14  C   UNK N   1      14.900  13.170  20.047  0.00  0.00     0.010 A 
HETATM   15  C   UNK N   1      15.249  12.251  19.047  0.00  0.00    -0.030 A 
HETATM   16  C   UNK N   1      14.718  12.398  17.762  0.00  0.00     0.010 A 
HETATM   17  C   UNK N   1      13.877  13.471  17.464  0.00  0.00     0.017 A 
BRANCH  15  18
HETATM   18  C   UNK N   1      16.203  11.123  19.347  0.00  0.00     0.311 C 
BRANCH  18  19
HETATM   19  N   UNK N   1      17.429  11.268  18.534  0.00  0.00     0.097 N 
HETATM   20  C   UNK N   1      17.169  10.892  17.131  0.00  0.00     0.309 C 
HETATM   21  C   UNK N   1      18.454  11.043  16.296  0.00  0.00     0.341 C 
HETATM   22  N   UNK N   1      18.971  12.428  16.356  0.00  0.00     0.013 N 
HETATM   23  O   UNK N   1      18.060  13.266  15.793  0.00  0.00    -0.065 OA
HETATM   24  C   UNK N   1      19.196  12.831  17.762  0.00  0.00     0.341 C 
HETATM   25  C   UNK N   1      20.220  12.550  15.584  0.00  0.00     0.356 C 
HETATM   26  C   UNK N   1      17.917  12.666  18.594  0.00  0.00     0.309 C 
ENDBRANCH  18  19
ENDBRANCH  15  18
ENDBRANCH   9  12
ENDBRANCH   1   8
BRANCH   3  27
HETATM   27  N   UNK N   1       8.177  19.143  20.823  0.00  0.00    -0.191 N 
HETATM   28  C   UNK N   1       8.516  19.967  21.937  0.00  0.00     0.683 A 
HETATM   29  N   UNK N   1       9.714  20.610  22.012  0.00  0.00    -0.191 N 
HETATM   30  N   UNK N   1       7.589  20.166  22.910  0.00  0.00    -0.202 N 
HETATM   31  C   UNK N   1      10.030  21.417  23.065  0.00  0.00     0.062 A 
ATOM     32  HN  UNK N   1      10.393  20.484  21.262  1.00  0.00     0.184 HD
HETATM   33  C   UNK N   1       9.078  21.600  24.083  0.00  0.00     0.048 A 
HETATM   34  C   UNK N   1       7.848  20.961  23.976  0.00  0.00     0.108 A 
ATOM     35  HN  UNK N   1       6.679  19.708  22.836  1.00  0.00     0.183 HD
HETATM   36  H   UNK N   1       7.182  18.892  20.750  0.00  0.00     0.184 HD
BRANCH  31  37
HETATM   37  C   UNK N   1      11.365  22.089  23.093  0.00  0.00     0.007 A 
HETATM   38  C   UNK N   1      12.479  21.408  23.620  0.00  0.00     0.016 A 
HETATM   39  C   UNK N   1      13.731  22.023  23.645  0.00  0.00     0.018 A 
HETATM   40  C   UNK N   1      13.868  23.320  23.156  0.00  0.00     0.087 A 
HETATM   41  N   UNK N   1      12.789  23.976  22.655  0.00  0.00    -0.374 N 
HETATM   42  C   UNK N   1      11.559  23.400  22.607  0.00  0.00     0.101 A 
ATOM     43  HN  UNK N   1      12.906  24.926  22.303  1.00  0.00     0.164 HD
ENDBRANCH  31  37
ENDBRANCH   3  27
TORSDOF 6
ENDMDL
