MODEL 1
REMARK VINA RESULT:      -6.5      0.000      0.000
REMARK  1 active torsions:
REMARK  status: ('A' for Active; 'I' for Inactive)
REMARK    1  A    between atoms: N_1  and  C_6 
REMARK       I    between atoms: N_3  and  C_12 
REMARK       I    between atoms: N_4  and  C_12 
ROOT
HETATM    1  N   UNK N   1      13.891  13.676  19.783  0.00  0.00    -0.192 N 
ATOM      2  HN  UNK N   1      13.649  13.972  20.728  1.00  0.00     0.184 HD
HETATM    3  N   UNK N   1      12.626  15.487  19.005  0.00  0.00    -0.235 N 
HETATM    4  N   UNK N   1      13.759  13.984  17.433  0.00  0.00    -0.235 N 
HETATM    5  C   UNK N   1      13.443  14.353  18.776  0.00  0.00     0.669 C 
HETATM    6  H   UNK N   1      12.385  15.774  19.965  0.00  0.00     0.174 HD
HETATM    7  H   UNK N   1      12.267  16.034  18.210  0.00  0.00     0.174 HD
HETATM    8  H   UNK N   1      13.395  14.537  16.647  0.00  0.00     0.174 HD
HETATM    9  H   UNK N   1      14.353  13.169  17.218  0.00  0.00     0.174 HD
ENDROOT
BRANCH   1  10
HETATM   10  C   UNK N   1      14.712  12.533  19.605  0.00  0.00     0.055 A 
HETATM   11  C   UNK N   1      16.113  12.630  19.734  0.00  0.00    -0.035 A 
HETATM   12  C   UNK N   1      16.908  11.505  19.463  0.00  0.00     0.009 A 
HETATM   13  C   UNK N   1      16.755  13.931  20.135  0.00  0.00     0.050 C 
HETATM   14  C   UNK N   1      16.313  10.301  19.070  0.00  0.00     0.001 A 
HETATM   15  C   UNK N   1      14.924  10.206  18.961  0.00  0.00     0.002 A 
HETATM   16  C   UNK N   1      14.124  11.318  19.230  0.00  0.00     0.030 A 
ENDBRANCH   1  10
TORSDOF 1
ENDMDL
MODEL 2
REMARK VINA RESULT:      -6.4      2.909      3.839
REMARK  1 active torsions:
REMARK  status: ('A' for Active; 'I' for Inactive)
REMARK    1  A    between atoms: N_1  and  C_6 
REMARK       I    between atoms: N_3  and  C_12 
REMARK       I    between atoms: N_4  and  C_12 
ROOT
HETATM    1  N   UNK N   1      15.916  12.380  18.201  0.00  0.00    -0.192 N 
ATOM      2  HN  UNK N   1      15.311  13.165  17.964  1.00  0.00     0.184 HD
HETATM    3  N   UNK N   1      14.010  11.292  19.019  0.00  0.00    -0.235 N 
HETATM    4  N   UNK N   1      16.205  10.202  19.098  0.00  0.00    -0.235 N 
HETATM    5  C   UNK N   1      15.401  11.330  18.753  0.00  0.00     0.669 C 
HETATM    6  H   UNK N   1      13.409  12.094  18.779  0.00  0.00     0.174 HD
HETATM    7  H   UNK N   1      13.591  10.460  19.456  0.00  0.00     0.174 HD
HETATM    8  H   UNK N   1      15.776   9.376  19.533  0.00  0.00     0.174 HD
HETATM    9  H   UNK N   1      17.221  10.183  18.919  0.00  0.00     0.174 HD
ENDROOT
BRANCH   1  10
HETATM   10  C   UNK N   1      17.303  12.466  17.915  0.00  0.00     0.055 A 
HETATM   11  C   UNK N   1      18.181  13.104  18.816  0.00  0.00    -0.035 A 
HETATM   12  C   UNK N   1      19.533  13.256  18.467  0.00  0.00     0.009 A 
HETATM   13  C   UNK N   1      17.675  13.636  20.129  0.00  0.00     0.050 C 
HETATM   14  C   UNK N   1      20.000  12.778  17.237  0.00  0.00     0.001 A 
HETATM   15  C   UNK N   1      19.129  12.133  16.357  0.00  0.00     0.002 A 
HETATM   16  C   UNK N   1      17.784  11.975  16.695  0.00  0.00     0.030 A 
ENDBRANCH   1  10
TORSDOF 1
ENDMDL
MODEL 3
REMARK VINA RESULT:      -6.4      3.918      4.684
REMARK  1 active torsions:
REMARK  status: ('A' for Active; 'I' for Inactive)
REMARK    1  A    between atoms: N_1  and  C_6 
REMARK       I    between atoms: N_3  and  C_12 
REMARK       I    between atoms: N_4  and  C_12 
ROOT
HETATM    1  N   UNK N   1      17.268  11.858  17.729  0.00  0.00    -0.192 N 
ATOM      2  HN  UNK N   1      17.329  11.412  18.644  1.00  0.00     0.184 HD
HETATM    3  N   UNK N   1      14.961  12.044  18.090  0.00  0.00    -0.235 N 
HETATM    4  N   UNK N   1      15.977  12.882  16.021  0.00  0.00    -0.235 N 
HETATM    5  C   UNK N   1      16.115  12.247  17.292  0.00  0.00     0.669 C 
HETATM    6  H   UNK N   1      15.035  11.588  19.011  0.00  0.00     0.174 HD
HETATM    7  H   UNK N   1      14.039  12.352  17.752  0.00  0.00     0.174 HD
HETATM    8  H   UNK N   1      15.052  13.187  15.694  0.00  0.00     0.174 HD
HETATM    9  H   UNK N   1      16.789  13.055  15.409  0.00  0.00     0.174 HD
ENDROOT
BRANCH   1  10
HETATM   10  C   UNK N   1      18.451  12.038  16.968  0.00  0.00     0.055 A 
HETATM   11  C   UNK N   1      19.510  12.826  17.466  0.00  0.00    -0.035 A 
HETATM   12  C   UNK N   1      20.631  13.063  16.653  0.00  0.00     0.009 A 
HETATM   13  C   UNK N   1      19.433  13.428  18.843  0.00  0.00     0.050 C 
HETATM   14  C   UNK N   1      20.694  12.520  15.365  0.00  0.00     0.001 A 
HETATM   15  C   UNK N   1      19.650  11.727  14.885  0.00  0.00     0.002 A 
HETATM   16  C   UNK N   1      18.532  11.484  15.684  0.00  0.00     0.030 A 
ENDBRANCH   1  10
TORSDOF 1
ENDMDL
MODEL 4
REMARK VINA RESULT:      -6.2      3.379      4.539
REMARK  1 active torsions:
REMARK  status: ('A' for Active; 'I' for Inactive)
REMARK    1  A    between atoms: N_1  and  C_6 
REMARK       I    between atoms: N_3  and  C_12 
REMARK       I    between atoms: N_4  and  C_12 
ROOT
HETATM    1  N   UNK N   1      16.189  12.310  18.001  0.00  0.00    -0.192 N 
ATOM      2  HN  UNK N   1      15.502  13.016  17.738  1.00  0.00     0.184 HD
HETATM    3  N   UNK N   1      14.426  11.100  18.957  0.00  0.00    -0.235 N 
HETATM    4  N   UNK N   1      16.720  10.234  19.022  0.00  0.00    -0.235 N 
HETATM    5  C   UNK N   1      15.798  11.254  18.637  0.00  0.00     0.669 C 
HETATM    6  H   UNK N   1      13.741  11.823  18.690  0.00  0.00     0.174 HD
HETATM    7  H   UNK N   1      14.105  10.262  19.461  0.00  0.00     0.174 HD
HETATM    8  H   UNK N   1      16.388   9.401  19.523  0.00  0.00     0.174 HD
HETATM    9  H   UNK N   1      17.726  10.301  18.806  0.00  0.00     0.174 HD
ENDROOT
BRANCH   1  10
HETATM   10  C   UNK N   1      17.551  12.510  17.658  0.00  0.00     0.055 A 
HETATM   11  C   UNK N   1      18.011  12.227  16.355  0.00  0.00    -0.035 A 
HETATM   12  C   UNK N   1      19.380  12.346  16.069  0.00  0.00     0.009 A 
HETATM   13  C   UNK N   1      17.051  11.778  15.287  0.00  0.00     0.050 C 
HETATM   14  C   UNK N   1      20.276  12.744  17.067  0.00  0.00     0.001 A 
HETATM   15  C   UNK N   1      19.812  13.040  18.351  0.00  0.00     0.002 A 
HETATM   16  C   UNK N   1      18.453  12.926  18.646  0.00  0.00     0.030 A 
ENDBRANCH   1  10
TORSDOF 1
ENDMDL
MODEL 5
REMARK VINA RESULT:      -5.9      1.871      2.043
REMARK  1 active torsions:
REMARK  status: ('A' for Active; 'I' for Inactive)
REMARK    1  A    between atoms: N_1  and  C_6 
REMARK       I    between atoms: N_3  and  C_12 
REMARK       I    between atoms: N_4  and  C_12 
ROOT
HETATM    1  N   UNK N   1      14.654  14.660  18.320  0.00  0.00    -0.192 N 
ATOM      2  HN  UNK N   1      14.817  15.607  17.979  1.00  0.00     0.184 HD
HETATM    3  N   UNK N   1      12.571  15.408  19.088  0.00  0.00    -0.235 N 
HETATM    4  N   UNK N   1      13.261  13.076  19.407  0.00  0.00    -0.235 N 
HETATM    5  C   UNK N   1      13.540  14.388  18.917  0.00  0.00     0.669 C 
HETATM    6  H   UNK N   1      12.749  16.362  18.743  0.00  0.00     0.174 HD
HETATM    7  H   UNK N   1      11.681  15.200  19.560  0.00  0.00     0.174 HD
HETATM    8  H   UNK N   1      12.368  12.879  19.876  0.00  0.00     0.174 HD
HETATM    9  H   UNK N   1      13.934  12.302  19.302  0.00  0.00     0.174 HD
ENDROOT
BRANCH   1  10
HETATM   10  C   UNK N   1      15.655  13.674  18.126  0.00  0.00     0.055 A 
HETATM   11  C   UNK N   1      16.615  13.421  19.129  0.00  0.00    -0.035 A 
HETATM   12  C   UNK N   1      17.648  12.506  18.874  0.00  0.00     0.009 A 
HETATM   13  C   UNK N   1      16.548  14.139  20.449  0.00  0.00     0.050 C 
HETATM   14  C   UNK N   1      17.723  11.852  17.640  0.00  0.00     0.001 A 
HETATM   15  C   UNK N   1      16.760  12.094  16.657  0.00  0.00     0.002 A 
HETATM   16  C   UNK N   1      15.727  13.001  16.900  0.00  0.00     0.030 A 
ENDBRANCH   1  10
TORSDOF 1
ENDMDL
MODEL 6
REMARK VINA RESULT:      -5.8      2.685      3.867
REMARK  1 active torsions:
REMARK  status: ('A' for Active; 'I' for Inactive)
REMARK    1  A    between atoms: N_1  and  C_6 
REMARK       I    between atoms: N_3  and  C_12 
REMARK       I    between atoms: N_4  and  C_12 
ROOT
HETATM    1  N   UNK N   1      16.140  12.080  16.770  0.00  0.00    -0.192 N 
ATOM      2  HN  UNK N   1      15.772  11.915  15.834  1.00  0.00     0.184 HD
HETATM    3  N   UNK N   1      18.270  12.182  15.803  0.00  0.00    -0.235 N 
HETATM    4  N   UNK N   1      17.977  12.481  18.219  0.00  0.00    -0.235 N 
HETATM    5  C   UNK N   1      17.413  12.240  16.929  0.00  0.00     0.669 C 
HETATM    6  H   UNK N   1      17.887  12.010  14.861  0.00  0.00     0.174 HD
HETATM    7  H   UNK N   1      19.285  12.310  15.919  0.00  0.00     0.174 HD
HETATM    8  H   UNK N   1      18.991  12.608  18.323  0.00  0.00     0.174 HD
HETATM    9  H   UNK N   1      17.392  12.536  19.066  0.00  0.00     0.174 HD
ENDROOT
BRANCH   1  10
HETATM   10  C   UNK N   1      15.241  12.130  17.867  0.00  0.00     0.055 A 
HETATM   11  C   UNK N   1      14.550  13.320  18.173  0.00  0.00    -0.035 A 
HETATM   12  C   UNK N   1      13.737  13.368  19.317  0.00  0.00     0.009 A 
HETATM   13  C   UNK N   1      14.696  14.536  17.298  0.00  0.00     0.050 C 
HETATM   14  C   UNK N   1      13.616  12.244  20.142  0.00  0.00     0.001 A 
HETATM   15  C   UNK N   1      14.290  11.063  19.824  0.00  0.00     0.002 A 
HETATM   16  C   UNK N   1      15.099  11.004  18.688  0.00  0.00     0.030 A 
ENDBRANCH   1  10
TORSDOF 1
ENDMDL
MODEL 7
REMARK VINA RESULT:      -5.8      2.911      4.346
REMARK  1 active torsions:
REMARK  status: ('A' for Active; 'I' for Inactive)
REMARK    1  A    between atoms: N_1  and  C_6 
REMARK       I    between atoms: N_3  and  C_12 
REMARK       I    between atoms: N_4  and  C_12 
ROOT
HETATM    1  N   UNK N   1      16.736  11.917  16.750  0.00  0.00    -0.192 N 
ATOM      2  HN  UNK N   1      16.496  11.427  15.889  1.00  0.00     0.184 HD
HETATM    3  N   UNK N   1      18.983  11.691  16.126  0.00  0.00    -0.235 N 
HETATM    4  N   UNK N   1      18.370  12.824  18.213  0.00  0.00    -0.235 N 
HETATM    5  C   UNK N   1      17.981  12.136  17.024  0.00  0.00     0.669 C 
HETATM    6  H   UNK N   1      18.727  11.193  15.261  0.00  0.00     0.174 HD
HETATM    7  H   UNK N   1      19.976  11.864  16.335  0.00  0.00     0.174 HD
HETATM    8  H   UNK N   1      19.364  12.991  18.411  0.00  0.00     0.174 HD
HETATM    9  H   UNK N   1      17.676  13.170  18.893  0.00  0.00     0.174 HD
ENDROOT
BRANCH   1  10
HETATM   10  C   UNK N   1      15.698  12.342  17.617  0.00  0.00     0.055 A 
HETATM   11  C   UNK N   1      15.264  11.515  18.674  0.00  0.00    -0.035 A 
HETATM   12  C   UNK N   1      14.173  11.920  19.460  0.00  0.00     0.009 A 
HETATM   13  C   UNK N   1      15.945  10.201  18.946  0.00  0.00     0.050 C 
HETATM   14  C   UNK N   1      13.526  13.132  19.195  0.00  0.00     0.001 A 
HETATM   15  C   UNK N   1      13.971  13.954  18.158  0.00  0.00     0.002 A 
HETATM   16  C   UNK N   1      15.055  13.562  17.371  0.00  0.00     0.030 A 
ENDBRANCH   1  10
TORSDOF 1
ENDMDL
MODEL 8
REMARK VINA RESULT:      -5.7      2.222      3.193
REMARK  1 active torsions:
REMARK  status: ('A' for Active; 'I' for Inactive)
REMARK    1  A    between atoms: N_1  and  C_6 
REMARK       I    between atoms: N_3  and  C_12 
REMARK       I    between atoms: N_4  and  C_12 
ROOT
HETATM    1  N   UNK N   1      14.871  13.012  19.633  0.00  0.00    -0.192 N 
ATOM      2  HN  UNK N   1      14.833  13.924  20.088  1.00  0.00     0.184 HD
HETATM    3  N   UNK N   1      13.183  12.326  21.105  0.00  0.00    -0.235 N 
HETATM    4  N   UNK N   1      14.090  10.780  19.432  0.00  0.00    -0.235 N 
HETATM    5  C   UNK N   1      14.081  12.072  20.039  0.00  0.00     0.669 C 
HETATM    6  H   UNK N   1      13.157  13.251  21.559  0.00  0.00     0.174 HD
HETATM    7  H   UNK N   1      12.548  11.585  21.433  0.00  0.00     0.174 HD
HETATM    8  H   UNK N   1      13.452  10.048  19.767  0.00  0.00     0.174 HD
HETATM    9  H   UNK N   1      14.724  10.551  18.650  0.00  0.00     0.174 HD
ENDROOT
BRANCH   1  10
HETATM   10  C   UNK N   1      15.788  12.807  18.571  0.00  0.00     0.055 A 
HETATM   11  C   UNK N   1      15.414  13.080  17.239  0.00  0.00    -0.035 A 
HETATM   12  C   UNK N   1      16.309  12.782  16.199  0.00  0.00     0.009 A 
HETATM   13  C   UNK N   1      14.062  13.665  16.929  0.00  0.00     0.050 C 
HETATM   14  C   UNK N   1      17.558  12.220  16.484  0.00  0.00     0.001 A 
HETATM   15  C   UNK N   1      17.929  11.967  17.807  0.00  0.00     0.002 A 
HETATM   16  C   UNK N   1      17.048  12.262  18.848  0.00  0.00     0.030 A 
ENDBRANCH   1  10
TORSDOF 1
ENDMDL
MODEL 9
REMARK VINA RESULT:      -5.6      4.953      6.095
REMARK  1 active torsions:
REMARK  status: ('A' for Active; 'I' for Inactive)
REMARK    1  A    between atoms: N_1  and  C_6 
REMARK       I    between atoms: N_3  and  C_12 
REMARK       I    between atoms: N_4  and  C_12 
ROOT
HETATM    1  N   UNK N   1      17.498  12.331  15.783  0.00  0.00    -0.192 N 
ATOM      2  HN  UNK N   1      16.889  12.594  15.009  1.00  0.00     0.184 HD
HETATM    3  N   UNK N   1      15.565  12.098  17.086  0.00  0.00    -0.235 N 
HETATM    4  N   UNK N   1      17.781  11.661  18.043  0.00  0.00    -0.235 N 
HETATM    5  C   UNK N   1      16.972  12.042  16.929  0.00  0.00     0.669 C 
HETATM    6  H   UNK N   1      14.961  12.369  16.297  0.00  0.00     0.174 HD
HETATM    7  H   UNK N   1      15.138  11.867  17.993  0.00  0.00     0.174 HD
HETATM    8  H   UNK N   1      17.343  11.432  18.944  0.00  0.00     0.174 HD
HETATM    9  H   UNK N   1      18.808  11.602  17.974  0.00  0.00     0.174 HD
ENDROOT
BRANCH   1  10
HETATM   10  C   UNK N   1      18.901  12.290  15.577  0.00  0.00     0.055 A 
HETATM   11  C   UNK N   1      19.453  11.462  14.577  0.00  0.00    -0.035 A 
HETATM   12  C   UNK N   1      20.849  11.371  14.455  0.00  0.00     0.009 A 
HETATM   13  C   UNK N   1      18.561  10.666  13.664  0.00  0.00     0.050 C 
HETATM   14  C   UNK N   1      21.680  12.095  15.316  0.00  0.00     0.001 A 
HETATM   15  C   UNK N   1      21.127  12.926  16.293  0.00  0.00     0.002 A 
HETATM   16  C   UNK N   1      19.741  13.026  16.422  0.00  0.00     0.030 A 
ENDBRANCH   1  10
TORSDOF 1
ENDMDL
