MODEL 1
REMARK VINA RESULT:     -10.3      0.000      0.000
REMARK  6 active torsions:
REMARK  status: ('A' for Active; 'I' for Inactive)
REMARK    1  A    between atoms: N_2  and  C_16 
REMARK       I    between atoms: N_4  and  C_23 
REMARK    2  A    between atoms: N_4  and  C_24 
REMARK    3  A    between atoms: N_5  and  C_25 
REMARK       I    between atoms: N_5  and  C_31 
REMARK    4  A    between atoms: C_16  and  C_17 
REMARK    5  A    between atoms: C_22  and  C_23 
REMARK    6  A    between atoms: C_32  and  C_33 
ROOT
HETATM    1  C   UNK N   1      10.907  17.808  16.882  0.00  0.00     0.037 A 
HETATM    2  C   UNK N   1       9.127  19.156  17.804  0.00  0.00     0.057 A 
HETATM    3  C   UNK N   1      10.053  18.121  17.939  0.00  0.00     0.060 A 
HETATM    4  C   UNK N   1       9.056  19.877  16.611  0.00  0.00    -0.035 A 
HETATM    5  C   UNK N   1      10.836  18.529  15.689  0.00  0.00     0.030 A 
HETATM    6  C   UNK N   1       9.909  19.564  15.554  0.00  0.00     0.011 A 
HETATM    7  C   UNK N   1       8.073  20.991  16.440  0.00  0.00     0.050 C 
ENDROOT
BRANCH   1   8
HETATM    8  N   UNK N   1      11.847  16.758  17.017  0.00  0.00    -0.323 N 
HETATM    9  C   UNK N   1      12.122  15.972  18.146  0.00  0.00     0.256 C 
HETATM   10  O   UNK N   1      11.557  16.085  19.247  0.00  0.00    -0.267 OA
HETATM   11  H   UNK N   1      12.402  16.605  16.180  0.00  0.00     0.169 HD
BRANCH   9  12
HETATM   12  C   UNK N   1      13.132  14.942  17.973  0.00  0.00     0.032 A 
HETATM   13  C   UNK N   1      13.134  13.819  18.800  0.00  0.00     0.017 A 
HETATM   14  C   UNK N   1      14.104  12.831  18.634  0.00  0.00     0.010 A 
HETATM   15  C   UNK N   1      15.073  12.965  17.639  0.00  0.00    -0.030 A 
HETATM   16  C   UNK N   1      15.071  14.089  16.811  0.00  0.00     0.010 A 
HETATM   17  C   UNK N   1      14.101  15.077  16.978  0.00  0.00     0.017 A 
BRANCH  15  18
HETATM   18  C   UNK N   1      16.119  11.901  17.459  0.00  0.00     0.311 C 
BRANCH  18  19
HETATM   19  N   UNK N   1      17.416  12.503  17.156  0.00  0.00     0.096 N 
HETATM   20  C   UNK N   1      18.037  11.851  15.997  0.00  0.00     0.302 C 
HETATM   21  C   UNK N   1      19.399  12.476  15.688  0.00  0.00     0.299 C 
HETATM   22  N   UNK N   1      20.296  12.419  16.845  0.00  0.00     0.086 N 
HETATM   23  C   UNK N   1      19.667  13.062  18.000  0.00  0.00     0.299 C 
HETATM   24  H   UNK N   1      21.170  12.895  16.622  0.00  0.00     0.315 HD
HETATM   25  C   UNK N   1      18.307  12.440  18.323  0.00  0.00     0.302 C 
ENDBRANCH  18  19
ENDBRANCH  15  18
ENDBRANCH   9  12
ENDBRANCH   1   8
BRANCH   2  26
HETATM   26  N   UNK N   1       8.270  19.460  18.884  0.00  0.00    -0.191 N 
HETATM   27  C   UNK N   1       8.464  19.477  20.278  0.00  0.00     0.683 A 
HETATM   28  N   UNK N   1       9.693  19.146  20.719  0.00  0.00    -0.191 N 
HETATM   29  N   UNK N   1       7.402  19.824  21.030  0.00  0.00    -0.202 N 
HETATM   30  C   UNK N   1       9.844  19.175  22.059  0.00  0.00     0.062 A 
ATOM     31  HN  UNK N   1      10.453  18.893  20.086  1.00  0.00     0.184 HD
HETATM   32  C   UNK N   1       8.836  19.515  22.937  0.00  0.00     0.048 A 
HETATM   33  C   UNK N   1       7.623  19.832  22.360  0.00  0.00     0.108 A 
ATOM     34  HN  UNK N   1       6.497  20.061  20.623  1.00  0.00     0.183 HD
HETATM   35  H   UNK N   1       7.358  19.819  18.620  0.00  0.00     0.184 HD
BRANCH  30  36
HETATM   36  C   UNK N   1      11.161  18.822  22.534  0.00  0.00     0.007 A 
HETATM   37  C   UNK N   1      11.553  19.107  23.838  0.00  0.00     0.016 A 
HETATM   38  C   UNK N   1      12.827  18.753  24.268  0.00  0.00     0.018 A 
HETATM   39  C   UNK N   1      13.665  18.122  23.362  0.00  0.00     0.087 A 
HETATM   40  N   UNK N   1      13.319  17.828  22.089  0.00  0.00    -0.374 N 
HETATM   41  C   UNK N   1      12.073  18.187  21.708  0.00  0.00     0.101 A 
ATOM     42  HN  UNK N   1      13.964  17.362  21.451  1.00  0.00     0.164 HD
ENDBRANCH  30  36
ENDBRANCH   2  26
TORSDOF 6
ENDMDL
MODEL 2
REMARK VINA RESULT:      -9.5      2.620     11.015
REMARK  6 active torsions:
REMARK  status: ('A' for Active; 'I' for Inactive)
REMARK    1  A    between atoms: N_2  and  C_16 
REMARK       I    between atoms: N_4  and  C_23 
REMARK    2  A    between atoms: N_4  and  C_24 
REMARK    3  A    between atoms: N_5  and  C_25 
REMARK       I    between atoms: N_5  and  C_31 
REMARK    4  A    between atoms: C_16  and  C_17 
REMARK    5  A    between atoms: C_22  and  C_23 
REMARK    6  A    between atoms: C_32  and  C_33 
ROOT
HETATM    1  C   UNK N   1      13.283  13.860  18.951  0.00  0.00     0.037 A 
HETATM    2  C   UNK N   1      15.517  13.075  19.429  0.00  0.00     0.057 A 
HETATM    3  C   UNK N   1      14.624  14.128  19.225  0.00  0.00     0.060 A 
HETATM    4  C   UNK N   1      15.069  11.756  19.360  0.00  0.00    -0.035 A 
HETATM    5  C   UNK N   1      12.834  12.541  18.881  0.00  0.00     0.030 A 
HETATM    6  C   UNK N   1      13.728  11.489  19.086  0.00  0.00     0.011 A 
HETATM    7  C   UNK N   1      16.004  10.610  19.575  0.00  0.00     0.050 C 
ENDROOT
BRANCH   1   8
HETATM    8  N   UNK N   1      12.376  14.927  18.743  0.00  0.00    -0.323 N 
HETATM    9  C   UNK N   1      12.365  15.875  17.709  0.00  0.00     0.256 C 
HETATM   10  O   UNK N   1      13.186  15.923  16.778  0.00  0.00    -0.267 OA
HETATM   11  H   UNK N   1      11.678  15.010  19.477  0.00  0.00     0.169 HD
BRANCH   9  12
HETATM   12  C   UNK N   1      11.282  16.844  17.747  0.00  0.00     0.032 A 
HETATM   13  C   UNK N   1      11.012  17.633  16.629  0.00  0.00     0.017 A 
HETATM   14  C   UNK N   1       9.973  18.563  16.666  0.00  0.00     0.010 A 
HETATM   15  C   UNK N   1       9.204  18.704  17.822  0.00  0.00    -0.030 A 
HETATM   16  C   UNK N   1       9.475  17.915  18.940  0.00  0.00     0.010 A 
HETATM   17  C   UNK N   1      10.514  16.985  18.903  0.00  0.00     0.017 A 
BRANCH  15  18
HETATM   18  C   UNK N   1       8.085  19.707  17.863  0.00  0.00     0.311 C 
BRANCH  18  19
HETATM   19  N   UNK N   1       8.009  20.336  19.180  0.00  0.00     0.096 N 
HETATM   20  C   UNK N   1       6.665  20.876  19.424  0.00  0.00     0.302 C 
HETATM   21  C   UNK N   1       6.590  21.543  20.800  0.00  0.00     0.299 C 
HETATM   22  N   UNK N   1       7.597  22.598  20.945  0.00  0.00     0.086 N 
HETATM   23  C   UNK N   1       8.933  22.056  20.690  0.00  0.00     0.299 C 
HETATM   24  H   UNK N   1       7.557  22.979  21.890  0.00  0.00     0.315 HD
HETATM   25  C   UNK N   1       9.022  21.392  19.314  0.00  0.00     0.302 C 
ENDBRANCH  18  19
ENDBRANCH  15  18
ENDBRANCH   9  12
ENDBRANCH   1   8
BRANCH   2  26
HETATM   26  N   UNK N   1      16.872  13.364  19.706  0.00  0.00    -0.191 N 
HETATM   27  C   UNK N   1      18.054  13.189  18.961  0.00  0.00     0.683 A 
HETATM   28  N   UNK N   1      17.919  12.644  17.737  0.00  0.00    -0.191 N 
HETATM   29  N   UNK N   1      19.199  13.586  19.549  0.00  0.00    -0.202 N 
HETATM   30  C   UNK N   1      19.071  12.494  17.051  0.00  0.00     0.062 A 
ATOM     31  HN  UNK N   1      17.014  12.366  17.357  1.00  0.00     0.184 HD
HETATM   32  C   UNK N   1      20.308  12.862  17.540  0.00  0.00     0.048 A 
HETATM   33  C   UNK N   1      20.311  13.407  18.808  0.00  0.00     0.108 A 
ATOM     34  HN  UNK N   1      19.222  13.991  20.484  1.00  0.00     0.183 HD
HETATM   35  H   UNK N   1      17.035  13.872  20.569  0.00  0.00     0.184 HD
BRANCH  30  36
HETATM   36  C   UNK N   1      18.930  11.911  15.738  0.00  0.00     0.007 A 
HETATM   37  C   UNK N   1      20.046  11.552  14.990  0.00  0.00     0.016 A 
HETATM   38  C   UNK N   1      19.878  10.990  13.728  0.00  0.00     0.018 A 
HETATM   39  C   UNK N   1      18.585  10.812  13.265  0.00  0.00     0.087 A 
HETATM   40  N   UNK N   1      17.477  11.148  13.963  0.00  0.00    -0.374 N 
HETATM   41  C   UNK N   1      17.679  11.690  15.184  0.00  0.00     0.101 A 
ATOM     42  HN  UNK N   1      16.540  11.001  13.588  1.00  0.00     0.164 HD
ENDBRANCH  30  36
ENDBRANCH   2  26
TORSDOF 6
ENDMDL
MODEL 3
REMARK VINA RESULT:      -9.5      2.060      2.502
REMARK  6 active torsions:
REMARK  status: ('A' for Active; 'I' for Inactive)
REMARK    1  A    between atoms: N_2  and  C_16 
REMARK       I    between atoms: N_4  and  C_23 
REMARK    2  A    between atoms: N_4  and  C_24 
REMARK    3  A    between atoms: N_5  and  C_25 
REMARK       I    between atoms: N_5  and  C_31 
REMARK    4  A    between atoms: C_16  and  C_17 
REMARK    5  A    between atoms: C_22  and  C_23 
REMARK    6  A    between atoms: C_32  and  C_33 
ROOT
HETATM    1  C   UNK N   1      10.838  17.327  18.591  0.00  0.00     0.037 A 
HETATM    2  C   UNK N   1       9.084  18.453  19.812  0.00  0.00     0.057 A 
HETATM    3  C   UNK N   1      10.122  17.521  19.771  0.00  0.00     0.060 A 
HETATM    4  C   UNK N   1       8.763  19.190  18.672  0.00  0.00    -0.035 A 
HETATM    5  C   UNK N   1      10.517  18.064  17.451  0.00  0.00     0.030 A 
HETATM    6  C   UNK N   1       9.480  18.996  17.491  0.00  0.00     0.011 A 
HETATM    7  C   UNK N   1       7.657  20.195  18.688  0.00  0.00     0.050 C 
ENDROOT
BRANCH   1   8
HETATM    8  N   UNK N   1      11.891  16.381  18.548  0.00  0.00    -0.323 N 
HETATM    9  C   UNK N   1      12.173  15.433  17.554  0.00  0.00     0.256 C 
HETATM   10  O   UNK N   1      11.513  15.273  16.514  0.00  0.00    -0.267 OA
HETATM   11  H   UNK N   1      12.476  16.394  19.378  0.00  0.00     0.169 HD
BRANCH   9  12
HETATM   12  C   UNK N   1      13.350  14.609  17.778  0.00  0.00     0.032 A 
HETATM   13  C   UNK N   1      14.280  14.427  16.754  0.00  0.00     0.017 A 
HETATM   14  C   UNK N   1      15.408  13.636  16.970  0.00  0.00     0.010 A 
HETATM   15  C   UNK N   1      15.607  13.027  18.209  0.00  0.00    -0.030 A 
HETATM   16  C   UNK N   1      14.676  13.208  19.232  0.00  0.00     0.010 A 
HETATM   17  C   UNK N   1      13.548  13.999  19.017  0.00  0.00     0.017 A 
BRANCH  15  18
HETATM   18  C   UNK N   1      16.823  12.174  18.441  0.00  0.00     0.311 C 
BRANCH  18  19
HETATM   19  N   UNK N   1      17.887  12.532  17.506  0.00  0.00     0.096 N 
HETATM   20  C   UNK N   1      18.078  11.478  16.503  0.00  0.00     0.302 C 
HETATM   21  C   UNK N   1      19.200  11.851  15.531  0.00  0.00     0.299 C 
HETATM   22  N   UNK N   1      20.458  12.119  16.233  0.00  0.00     0.086 N 
HETATM   23  C   UNK N   1      20.258  13.164  17.239  0.00  0.00     0.299 C 
HETATM   24  H   UNK N   1      21.164  12.421  15.562  0.00  0.00     0.315 HD
HETATM   25  C   UNK N   1      19.143  12.799  18.221  0.00  0.00     0.302 C 
ENDBRANCH  18  19
ENDBRANCH  15  18
ENDBRANCH   9  12
ENDBRANCH   1   8
BRANCH   2  26
HETATM   26  N   UNK N   1       8.369  18.637  21.016  0.00  0.00    -0.191 N 
HETATM   27  C   UNK N   1       8.585  19.462  22.135  0.00  0.00     0.683 A 
HETATM   28  N   UNK N   1       9.676  20.252  22.099  0.00  0.00    -0.191 N 
HETATM   29  N   UNK N   1       7.679  19.379  23.128  0.00  0.00    -0.202 N 
HETATM   30  C   UNK N   1       9.850  21.032  23.186  0.00  0.00     0.062 A 
ATOM     31  HN  UNK N   1      10.320  20.261  21.308  1.00  0.00     0.184 HD
HETATM   32  C   UNK N   1       8.994  21.041  24.268  0.00  0.00     0.048 A 
HETATM   33  C   UNK N   1       7.915  20.185  24.183  0.00  0.00     0.108 A 
ATOM     34  HN  UNK N   1       6.876  18.753  23.085  1.00  0.00     0.183 HD
HETATM   35  H   UNK N   1       7.480  18.150  21.066  0.00  0.00     0.184 HD
BRANCH  30  36
HETATM   36  C   UNK N   1      11.017  21.881  23.150  0.00  0.00     0.007 A 
HETATM   37  C   UNK N   1      12.256  21.416  23.577  0.00  0.00     0.016 A 
HETATM   38  C   UNK N   1      13.363  22.257  23.528  0.00  0.00     0.018 A 
HETATM   39  C   UNK N   1      13.178  23.544  23.049  0.00  0.00     0.087 A 
HETATM   40  N   UNK N   1      11.990  24.031  22.625  0.00  0.00    -0.374 N 
HETATM   41  C   UNK N   1      10.939  23.185  22.687  0.00  0.00     0.101 A 
ATOM     42  HN  UNK N   1      11.893  24.985  22.279  1.00  0.00     0.164 HD
ENDBRANCH  30  36
ENDBRANCH   2  26
TORSDOF 6
ENDMDL
