MODEL 1
REMARK VINA RESULT:      -8.1      0.000      0.000
REMARK  4 active torsions:
REMARK  status: ('A' for Active; 'I' for Inactive)
REMARK    1  A    between atoms: O_1  and  C_17 
REMARK    2  A    between atoms: N_3  and  C_9 
REMARK    3  A    between atoms: C_9  and  C_11 
REMARK    4  A    between atoms: C_16  and  C_17 
ROOT
HETATM    1  C   UNK N   1      19.006  12.662  17.552  0.00  0.00    -0.030 A 
HETATM    2  C   UNK N   1      18.200  12.088  16.558  0.00  0.00     0.010 A 
HETATM    3  C   UNK N   1      20.377  12.831  17.324  0.00  0.00     0.010 A 
HETATM    4  C   UNK N   1      18.766  11.685  15.344  0.00  0.00     0.019 A 
HETATM    5  C   UNK N   1      20.942  12.430  16.115  0.00  0.00     0.019 A 
HETATM    6  C   UNK N   1      20.144  11.853  15.115  0.00  0.00     0.037 A 
ENDROOT
BRANCH   1   7
HETATM    7  C   UNK N   1      18.421  13.086  18.869  0.00  0.00     0.311 C 
BRANCH   7   8
HETATM    8  N   UNK N   1      16.945  13.041  18.823  0.00  0.00     0.096 N 
HETATM    9  C   UNK N   1      16.456  11.658  19.019  0.00  0.00     0.307 C 
HETATM   10  C   UNK N   1      14.914  11.625  18.989  0.00  0.00     0.244 C 
HETATM   11  N   UNK N   1      14.361  12.531  20.010  0.00  0.00     0.091 N 
HETATM   12  C   UNK N   1      14.400  10.203  19.229  0.00  0.00     0.044 C 
HETATM   13  C   UNK N   1      14.852  13.898  19.808  0.00  0.00     0.300 C 
HETATM   14  H   UNK N   1      14.637  12.206  20.967  0.00  0.00     0.316 HD
HETATM   15  C   UNK N   1      16.384  13.933  19.853  0.00  0.00     0.302 C 
ENDBRANCH   7   8
ENDBRANCH   1   7
BRANCH   6  16
HETATM   16  C   UNK N   1      20.764  11.430  13.840  0.00  0.00     0.176 C 
HETATM   17  O   UNK N   1      21.973  11.278  13.756  0.00  0.00    -0.646 OA
BRANCH  16  18
HETATM   18  O   UNK N   1      19.983  11.210  12.757  0.00  0.00    -0.773 OA
HETATM   19  H   UNK N   1      19.595  11.940  12.257  0.00  0.00     0.167 HD
ENDBRANCH  16  18
ENDBRANCH   6  16
TORSDOF 4
ENDMDL
MODEL 2
REMARK VINA RESULT:      -8.1      1.710      2.688
REMARK  4 active torsions:
REMARK  status: ('A' for Active; 'I' for Inactive)
REMARK    1  A    between atoms: O_1  and  C_17 
REMARK    2  A    between atoms: N_3  and  C_9 
REMARK    3  A    between atoms: C_9  and  C_11 
REMARK    4  A    between atoms: C_16  and  C_17 
ROOT
HETATM    1  C   UNK N   1      18.517  11.778  15.337  0.00  0.00    -0.030 A 
HETATM    2  C   UNK N   1      19.415  12.597  16.036  0.00  0.00     0.010 A 
HETATM    3  C   UNK N   1      18.975  10.999  14.266  0.00  0.00     0.010 A 
HETATM    4  C   UNK N   1      20.763  12.637  15.664  0.00  0.00     0.019 A 
HETATM    5  C   UNK N   1      20.317  11.037  13.895  0.00  0.00     0.019 A 
HETATM    6  C   UNK N   1      21.223  11.855  14.587  0.00  0.00     0.037 A 
ENDROOT
BRANCH   1   7
HETATM    7  C   UNK N   1      17.063  11.735  15.710  0.00  0.00     0.311 C 
BRANCH   7   8
HETATM    8  N   UNK N   1      16.842  12.367  17.026  0.00  0.00     0.096 N 
HETATM    9  C   UNK N   1      15.520  13.030  17.075  0.00  0.00     0.307 C 
HETATM   10  C   UNK N   1      15.292  13.670  18.459  0.00  0.00     0.244 C 
HETATM   11  N   UNK N   1      15.415  12.657  19.521  0.00  0.00     0.091 N 
HETATM   12  C   UNK N   1      13.910  14.325  18.530  0.00  0.00     0.044 C 
HETATM   13  C   UNK N   1      16.728  12.004  19.464  0.00  0.00     0.300 C 
HETATM   14  H   UNK N   1      14.668  11.930  19.413  0.00  0.00     0.316 HD
HETATM   15  C   UNK N   1      16.948  11.356  18.092  0.00  0.00     0.302 C 
ENDBRANCH   7   8
ENDBRANCH   1   7
BRANCH   6  16
HETATM   16  C   UNK N   1      22.644  11.885  14.174  0.00  0.00     0.176 C 
HETATM   17  O   UNK N   1      23.252  10.847  13.963  0.00  0.00    -0.646 OA
BRANCH  16  18
HETATM   18  O   UNK N   1      23.274  13.073  14.031  0.00  0.00    -0.773 OA
HETATM   19  H   UNK N   1      23.323  13.710  14.756  0.00  0.00     0.167 HD
ENDBRANCH  16  18
ENDBRANCH   6  16
TORSDOF 4
ENDMDL
MODEL 3
REMARK VINA RESULT:      -7.9      1.659      2.530
REMARK  4 active torsions:
REMARK  status: ('A' for Active; 'I' for Inactive)
REMARK    1  A    between atoms: O_1  and  C_17 
REMARK    2  A    between atoms: N_3  and  C_9 
REMARK    3  A    between atoms: C_9  and  C_11 
REMARK    4  A    between atoms: C_16  and  C_17 
ROOT
HETATM    1  C   UNK N   1      18.408  11.901  16.559  0.00  0.00    -0.030 A 
HETATM    2  C   UNK N   1      19.430  12.524  17.290  0.00  0.00     0.010 A 
HETATM    3  C   UNK N   1      18.657  11.460  15.253  0.00  0.00     0.010 A 
HETATM    4  C   UNK N   1      20.692  12.706  16.716  0.00  0.00     0.019 A 
HETATM    5  C   UNK N   1      19.914  11.640  14.680  0.00  0.00     0.019 A 
HETATM    6  C   UNK N   1      20.943  12.264  15.403  0.00  0.00     0.037 A 
ENDROOT
BRANCH   1   7
HETATM    7  C   UNK N   1      17.041  11.713  17.152  0.00  0.00     0.311 C 
BRANCH   7   8
HETATM    8  N   UNK N   1      16.579  12.956  17.803  0.00  0.00     0.096 N 
HETATM    9  C   UNK N   1      15.239  13.341  17.306  0.00  0.00     0.307 C 
HETATM   10  C   UNK N   1      14.757  14.628  18.006  0.00  0.00     0.244 C 
HETATM   11  N   UNK N   1      14.747  14.445  19.467  0.00  0.00     0.091 N 
HETATM   12  C   UNK N   1      13.355  15.011  17.526  0.00  0.00     0.044 C 
HETATM   13  C   UNK N   1      16.079  14.063  19.950  0.00  0.00     0.300 C 
HETATM   14  H   UNK N   1      14.061  13.699  19.732  0.00  0.00     0.316 HD
HETATM   15  C   UNK N   1      16.551  12.775  19.265  0.00  0.00     0.302 C 
ENDBRANCH   7   8
ENDBRANCH   1   7
BRANCH   6  16
HETATM   16  C   UNK N   1      22.269  12.449  14.774  0.00  0.00     0.176 C 
HETATM   17  O   UNK N   1      22.513  13.451  14.120  0.00  0.00    -0.646 OA
BRANCH  16  18
HETATM   18  O   UNK N   1      23.219  11.499  14.926  0.00  0.00    -0.773 OA
HETATM   19  H   UNK N   1      23.972  11.626  15.519  0.00  0.00     0.167 HD
ENDBRANCH  16  18
ENDBRANCH   6  16
TORSDOF 4
ENDMDL
MODEL 4
REMARK VINA RESULT:      -7.6      4.148      6.814
REMARK  4 active torsions:
REMARK  status: ('A' for Active; 'I' for Inactive)
REMARK    1  A    between atoms: O_1  and  C_17 
REMARK    2  A    between atoms: N_3  and  C_9 
REMARK    3  A    between atoms: C_9  and  C_11 
REMARK    4  A    between atoms: C_16  and  C_17 
ROOT
HETATM    1  C   UNK N   1      16.827  12.148  16.394  0.00  0.00    -0.030 A 
HETATM    2  C   UNK N   1      17.144  11.594  17.644  0.00  0.00     0.010 A 
HETATM    3  C   UNK N   1      15.796  13.090  16.293  0.00  0.00     0.010 A 
HETATM    4  C   UNK N   1      16.430  11.981  18.782  0.00  0.00     0.019 A 
HETATM    5  C   UNK N   1      15.085  13.476  17.426  0.00  0.00     0.019 A 
HETATM    6  C   UNK N   1      15.392  12.927  18.680  0.00  0.00     0.037 A 
ENDROOT
BRANCH   1   7
HETATM    7  C   UNK N   1      17.570  11.732  15.157  0.00  0.00     0.311 C 
BRANCH   7   8
HETATM    8  N   UNK N   1      19.020  11.635  15.426  0.00  0.00     0.096 N 
HETATM    9  C   UNK N   1      19.764  11.331  14.184  0.00  0.00     0.307 C 
HETATM   10  C   UNK N   1      21.277  11.251  14.472  0.00  0.00     0.244 C 
HETATM   11  N   UNK N   1      21.752  12.506  15.078  0.00  0.00     0.091 N 
HETATM   12  C   UNK N   1      22.058  10.974  13.184  0.00  0.00     0.044 C 
HETATM   13  C   UNK N   1      21.007  12.800  16.308  0.00  0.00     0.300 C 
HETATM   14  H   UNK N   1      21.628  13.300  14.406  0.00  0.00     0.316 HD
HETATM   15  C   UNK N   1      19.505  12.894  16.018  0.00  0.00     0.302 C 
ENDBRANCH   7   8
ENDBRANCH   1   7
BRANCH   6  16
HETATM   16  C   UNK N   1      14.622  13.347  19.871  0.00  0.00     0.176 C 
HETATM   17  O   UNK N   1      13.860  12.570  20.426  0.00  0.00    -0.646 OA
BRANCH  16  18
HETATM   18  O   UNK N   1      14.763  14.605  20.348  0.00  0.00    -0.773 OA
HETATM   19  H   UNK N   1      15.585  14.900  20.761  0.00  0.00     0.167 HD
ENDBRANCH  16  18
ENDBRANCH   6  16
TORSDOF 4
ENDMDL
MODEL 5
REMARK VINA RESULT:      -6.9      1.044      2.150
REMARK  4 active torsions:
REMARK  status: ('A' for Active; 'I' for Inactive)
REMARK    1  A    between atoms: O_1  and  C_17 
REMARK    2  A    between atoms: N_3  and  C_9 
REMARK    3  A    between atoms: C_9  and  C_11 
REMARK    4  A    between atoms: C_16  and  C_17 
ROOT
HETATM    1  C   UNK N   1      18.993  12.639  17.555  0.00  0.00    -0.030 A 
HETATM    2  C   UNK N   1      20.372  12.685  17.301  0.00  0.00     0.010 A 
HETATM    3  C   UNK N   1      18.120  12.170  16.565  0.00  0.00     0.010 A 
HETATM    4  C   UNK N   1      20.872  12.264  16.064  0.00  0.00     0.019 A 
HETATM    5  C   UNK N   1      18.616  11.751  15.333  0.00  0.00     0.019 A 
HETATM    6  C   UNK N   1      19.994  11.794  15.069  0.00  0.00     0.037 A 
ENDROOT
BRANCH   1   7
HETATM    7  C   UNK N   1      18.436  13.102  18.870  0.00  0.00     0.311 C 
BRANCH   7   8
HETATM    8  N   UNK N   1      17.117  12.487  19.124  0.00  0.00     0.096 N 
HETATM    9  C   UNK N   1      16.057  13.181  18.359  0.00  0.00     0.307 C 
HETATM   10  C   UNK N   1      14.689  12.518  18.617  0.00  0.00     0.244 C 
HETATM   11  N   UNK N   1      14.738  11.087  18.273  0.00  0.00     0.091 N 
HETATM   12  C   UNK N   1      13.593  13.207  17.799  0.00  0.00     0.044 C 
HETATM   13  C   UNK N   1      15.792  10.408  19.036  0.00  0.00     0.300 C 
HETATM   14  H   UNK N   1      14.927  10.969  17.250  0.00  0.00     0.316 HD
HETATM   15  C   UNK N   1      17.154  11.058  18.768  0.00  0.00     0.302 C 
ENDBRANCH   7   8
ENDBRANCH   1   7
BRANCH   6  16
HETATM   16  C   UNK N   1      20.500  11.348  13.752  0.00  0.00     0.176 C 
HETATM   17  O   UNK N   1      19.726  11.033  12.863  0.00  0.00    -0.646 OA
BRANCH  16  18
HETATM   18  O   UNK N   1      21.834  11.289  13.534  0.00  0.00    -0.773 OA
HETATM   19  H   UNK N   1      22.369  10.554  13.864  0.00  0.00     0.167 HD
ENDBRANCH  16  18
ENDBRANCH   6  16
TORSDOF 4
ENDMDL
MODEL 6
REMARK VINA RESULT:      -6.8      4.040      6.802
REMARK  4 active torsions:
REMARK  status: ('A' for Active; 'I' for Inactive)
REMARK    1  A    between atoms: O_1  and  C_17 
REMARK    2  A    between atoms: N_3  and  C_9 
REMARK    3  A    between atoms: C_9  and  C_11 
REMARK    4  A    between atoms: C_16  and  C_17 
ROOT
HETATM    1  C   UNK N   1      17.948  12.298  17.215  0.00  0.00    -0.030 A 
HETATM    2  C   UNK N   1      17.110  12.542  16.117  0.00  0.00     0.010 A 
HETATM    3  C   UNK N   1      17.521  12.640  18.504  0.00  0.00     0.010 A 
HETATM    4  C   UNK N   1      15.853  13.125  16.310  0.00  0.00     0.019 A 
HETATM    5  C   UNK N   1      16.269  13.221  18.698  0.00  0.00     0.019 A 
HETATM    6  C   UNK N   1      15.424  13.470  17.605  0.00  0.00     0.037 A 
ENDROOT
BRANCH   1   7
HETATM    7  C   UNK N   1      19.308  11.690  17.027  0.00  0.00     0.311 C 
BRANCH   7   8
HETATM    8  N   UNK N   1      19.786  11.897  15.644  0.00  0.00     0.096 N 
HETATM    9  C   UNK N   1      21.257  12.052  15.616  0.00  0.00     0.307 C 
HETATM   10  C   UNK N   1      21.748  12.248  14.167  0.00  0.00     0.244 C 
HETATM   11  N   UNK N   1      21.318  11.122  13.322  0.00  0.00     0.091 N 
HETATM   12  C   UNK N   1      23.274  12.370  14.126  0.00  0.00     0.044 C 
HETATM   13  C   UNK N   1      19.859  10.976  13.357  0.00  0.00     0.300 C 
HETATM   14  H   UNK N   1      21.758  10.232  13.656  0.00  0.00     0.316 HD
HETATM   15  C   UNK N   1      19.373  10.766  14.796  0.00  0.00     0.302 C 
ENDBRANCH   7   8
ENDBRANCH   1   7
BRANCH   6  16
HETATM   16  C   UNK N   1      14.101  14.091  17.832  0.00  0.00     0.176 C 
HETATM   17  O   UNK N   1      13.172  13.432  18.274  0.00  0.00    -0.646 OA
BRANCH  16  18
HETATM   18  O   UNK N   1      13.919  15.400  17.545  0.00  0.00    -0.773 OA
HETATM   19  H   UNK N   1      13.233  15.693  16.931  0.00  0.00     0.167 HD
ENDBRANCH  16  18
ENDBRANCH   6  16
TORSDOF 4
ENDMDL
MODEL 7
REMARK VINA RESULT:      -6.5      4.379      7.037
REMARK  4 active torsions:
REMARK  status: ('A' for Active; 'I' for Inactive)
REMARK    1  A    between atoms: O_1  and  C_17 
REMARK    2  A    between atoms: N_3  and  C_9 
REMARK    3  A    between atoms: C_9  and  C_11 
REMARK    4  A    between atoms: C_16  and  C_17 
ROOT
HETATM    1  C   UNK N   1      15.466  12.874  17.852  0.00  0.00    -0.030 A 
HETATM    2  C   UNK N   1      14.528  12.818  18.894  0.00  0.00     0.010 A 
HETATM    3  C   UNK N   1      15.393  13.904  16.905  0.00  0.00     0.010 A 
HETATM    4  C   UNK N   1      13.524  13.787  18.985  0.00  0.00     0.019 A 
HETATM    5  C   UNK N   1      14.394  14.869  16.995  0.00  0.00     0.019 A 
HETATM    6  C   UNK N   1      13.449  14.821  18.032  0.00  0.00     0.037 A 
ENDROOT
BRANCH   1   7
HETATM    7  C   UNK N   1      16.542  11.833  17.727  0.00  0.00     0.311 C 
BRANCH   7   8
HETATM    8  N   UNK N   1      17.431  12.135  16.586  0.00  0.00     0.096 N 
HETATM    9  C   UNK N   1      18.835  12.265  17.035  0.00  0.00     0.307 C 
HETATM   10  C   UNK N   1      19.756  12.561  15.835  0.00  0.00     0.244 C 
HETATM   11  N   UNK N   1      19.623  11.508  14.813  0.00  0.00     0.091 N 
HETATM   12  C   UNK N   1      21.216  12.659  16.286  0.00  0.00     0.044 C 
HETATM   13  C   UNK N   1      18.228  11.385  14.376  0.00  0.00     0.300 C 
HETATM   14  H   UNK N   1      19.941  10.588  15.201  0.00  0.00     0.316 HD
HETATM   15  C   UNK N   1      17.314  11.077  15.567  0.00  0.00     0.302 C 
ENDBRANCH   7   8
ENDBRANCH   1   7
BRANCH   6  16
HETATM   16  C   UNK N   1      12.393  15.854  18.107  0.00  0.00     0.176 C 
HETATM   17  O   UNK N   1      12.011  16.428  17.099  0.00  0.00    -0.646 OA
BRANCH  16  18
HETATM   18  O   UNK N   1      11.847  16.166  19.305  0.00  0.00    -0.773 OA
HETATM   19  H   UNK N   1      11.011  15.778  19.596  0.00  0.00     0.167 HD
ENDBRANCH  16  18
ENDBRANCH   6  16
TORSDOF 4
ENDMDL
MODEL 8
REMARK VINA RESULT:      -6.4      9.811     12.331
REMARK  4 active torsions:
REMARK  status: ('A' for Active; 'I' for Inactive)
REMARK    1  A    between atoms: O_1  and  C_17 
REMARK    2  A    between atoms: N_3  and  C_9 
REMARK    3  A    between atoms: C_9  and  C_11 
REMARK    4  A    between atoms: C_16  and  C_17 
ROOT
HETATM    1  C   UNK N   1       8.572  20.184  17.288  0.00  0.00    -0.030 A 
HETATM    2  C   UNK N   1       9.384  20.494  16.187  0.00  0.00     0.010 A 
HETATM    3  C   UNK N   1       8.631  18.905  17.857  0.00  0.00     0.010 A 
HETATM    4  C   UNK N   1      10.247  19.528  15.658  0.00  0.00     0.019 A 
HETATM    5  C   UNK N   1       9.490  17.943  17.332  0.00  0.00     0.019 A 
HETATM    6  C   UNK N   1      10.305  18.242  16.228  0.00  0.00     0.037 A 
ENDROOT
BRANCH   1   7
HETATM    7  C   UNK N   1       7.627  21.201  17.859  0.00  0.00     0.311 C 
BRANCH   7   8
HETATM    8  N   UNK N   1       7.507  21.040  19.323  0.00  0.00     0.096 N 
HETATM    9  C   UNK N   1       8.539  21.834  20.025  0.00  0.00     0.307 C 
HETATM   10  C   UNK N   1       8.393  21.674  21.552  0.00  0.00     0.244 C 
HETATM   11  N   UNK N   1       7.040  22.066  21.982  0.00  0.00     0.091 N 
HETATM   12  C   UNK N   1       9.433  22.523  22.286  0.00  0.00     0.044 C 
HETATM   13  C   UNK N   1       6.024  21.274  21.280  0.00  0.00     0.300 C 
HETATM   14  H   UNK N   1       6.879  23.081  21.783  0.00  0.00     0.316 HD
HETATM   15  C   UNK N   1       6.161  21.445  19.763  0.00  0.00     0.302 C 
ENDBRANCH   7   8
ENDBRANCH   1   7
BRANCH   6  16
HETATM   16  C   UNK N   1      11.207  17.205  15.683  0.00  0.00     0.176 C 
HETATM   17  O   UNK N   1      11.991  16.617  16.412  0.00  0.00    -0.646 OA
BRANCH  16  18
HETATM   18  O   UNK N   1      11.163  16.907  14.364  0.00  0.00    -0.773 OA
HETATM   19  H   UNK N   1      10.937  16.020  14.054  0.00  0.00     0.167 HD
ENDBRANCH  16  18
ENDBRANCH   6  16
TORSDOF 4
ENDMDL
MODEL 9
REMARK VINA RESULT:      -6.1      5.124      6.802
REMARK  4 active torsions:
REMARK  status: ('A' for Active; 'I' for Inactive)
REMARK    1  A    between atoms: O_1  and  C_17 
REMARK    2  A    between atoms: N_3  and  C_9 
REMARK    3  A    between atoms: C_9  and  C_11 
REMARK    4  A    between atoms: C_16  and  C_17 
ROOT
HETATM    1  C   UNK N   1      13.148  14.804  18.099  0.00  0.00    -0.030 A 
HETATM    2  C   UNK N   1      14.106  15.081  17.111  0.00  0.00     0.010 A 
HETATM    3  C   UNK N   1      13.193  13.584  18.786  0.00  0.00     0.010 A 
HETATM    4  C   UNK N   1      15.099  14.142  16.815  0.00  0.00     0.019 A 
HETATM    5  C   UNK N   1      14.182  12.649  18.492  0.00  0.00     0.019 A 
HETATM    6  C   UNK N   1      15.143  12.916  17.505  0.00  0.00     0.037 A 
ENDROOT
BRANCH   1   7
HETATM    7  C   UNK N   1      12.063  15.791  18.419  0.00  0.00     0.311 C 
BRANCH   7   8
HETATM    8  N   UNK N   1      11.684  16.559  17.215  0.00  0.00     0.096 N 
HETATM    9  C   UNK N   1      10.767  15.774  16.360  0.00  0.00     0.307 C 
HETATM   10  C   UNK N   1      10.361  16.591  15.117  0.00  0.00     0.244 C 
HETATM   11  N   UNK N   1       9.747  17.868  15.519  0.00  0.00     0.091 N 
HETATM   12  C   UNK N   1       9.382  15.800  14.246  0.00  0.00     0.044 C 
HETATM   13  C   UNK N   1      10.663  18.638  16.367  0.00  0.00     0.300 C 
HETATM   14  H   UNK N   1       8.860  17.689  16.048  0.00  0.00     0.316 HD
HETATM   15  C   UNK N   1      11.054  17.831  17.610  0.00  0.00     0.302 C 
ENDBRANCH   7   8
ENDBRANCH   1   7
BRANCH   6  16
HETATM   16  C   UNK N   1      16.182  11.907  17.204  0.00  0.00     0.176 C 
HETATM   17  O   UNK N   1      16.326  10.929  17.922  0.00  0.00    -0.646 OA
BRANCH  16  18
HETATM   18  O   UNK N   1      16.982  12.071  16.126  0.00  0.00    -0.773 OA
HETATM   19  H   UNK N   1      17.891  12.387  16.213  0.00  0.00     0.167 HD
ENDBRANCH  16  18
ENDBRANCH   6  16
TORSDOF 4
ENDMDL
