MODEL 1
REMARK VINA RESULT:      -5.6      0.000      0.000
REMARK  8 active torsions:
REMARK  status: ('A' for Active; 'I' for Inactive)
REMARK    1  A    between atoms: O_1  and  C_19 
REMARK    2  A    between atoms: O_1  and  C_21 
REMARK    3  A    between atoms: N_4  and  C_18 
REMARK       I    between atoms: N_5  and  C_19 
REMARK       I    between atoms: N_6  and  C_30 
REMARK    4  A    between atoms: N_6  and  C_31 
REMARK    5  A    between atoms: N_7  and  C_33 
REMARK       I    between atoms: N_7  and  C_38 
REMARK    6  A    between atoms: C_18  and  C_20 
REMARK    7  A    between atoms: C_29  and  C_30 
REMARK    8  A    between atoms: C_39  and  C_40 
ROOT
HETATM    1  C   UNK N   1      11.088  18.454  21.491  0.00  0.00     0.037 A 
HETATM    2  C   UNK N   1       9.991  19.254  21.081  0.00  0.00     0.060 A 
HETATM    3  C   UNK N   1       9.411  20.207  21.963  0.00  0.00     0.057 A 
HETATM    4  C   UNK N   1      11.588  18.627  22.790  0.00  0.00     0.030 A 
HETATM    5  C   UNK N   1       9.942  20.333  23.274  0.00  0.00    -0.035 A 
HETATM    6  C   UNK N   1      11.029  19.547  23.664  0.00  0.00     0.011 A 
HETATM    7  C   UNK N   1       9.370  21.312  24.268  0.00  0.00     0.050 C 
ENDROOT
BRANCH   1   8
HETATM    8  N   UNK N   1      11.723  17.449  20.673  0.00  0.00    -0.323 N 
HETATM    9  C   UNK N   1      11.248  16.867  19.522  0.00  0.00     0.256 C 
HETATM   10  O   UNK N   1      10.177  17.206  19.050  0.00  0.00    -0.267 OA
HETATM   11  H   UNK N   1      12.659  17.175  20.988  0.00  0.00     0.169 HD
BRANCH   9  12
HETATM   12  C   UNK N   1      12.059  15.831  18.780  0.00  0.00     0.032 A 
HETATM   13  C   UNK N   1      12.762  14.846  19.507  0.00  0.00     0.017 A 
HETATM   14  C   UNK N   1      13.493  13.851  18.845  0.00  0.00     0.010 A 
HETATM   15  C   UNK N   1      13.536  13.817  17.445  0.00  0.00    -0.030 A 
HETATM   16  C   UNK N   1      12.862  14.802  16.715  0.00  0.00     0.010 A 
HETATM   17  C   UNK N   1      12.137  15.798  17.367  0.00  0.00     0.017 A 
BRANCH  15  18
HETATM   18  C   UNK N   1      14.272  12.726  16.708  0.00  0.00     0.311 C 
BRANCH  18  19
HETATM   19  N   UNK N   1      15.494  12.377  17.461  0.00  0.00     0.095 N 
HETATM   20  C   UNK N   1      16.067  13.583  18.105  0.00  0.00     0.292 C 
HETATM   21  C   UNK N   1      17.257  13.196  18.980  0.00  0.00     0.158 C 
HETATM   22  N   UNK N   1      18.216  12.462  18.166  0.00  0.00    -0.325 N 
HETATM   23  C   UNK N   1      17.710  11.291  17.464  0.00  0.00     0.158 C 
HETATM   24  C   UNK N   1      19.525  12.858  18.063  0.00  0.00     0.363 C 
HETATM   25  C   UNK N   1      16.507  11.718  16.607  0.00  0.00     0.292 C 
HETATM   26  O   UNK N   1      19.906  13.865  18.643  0.00  0.00    -0.238 OA
BRANCH  24  27
HETATM   27  O   UNK N   1      20.411  12.105  17.347  0.00  0.00    -0.294 OA
BRANCH  27  28
HETATM   28  C   UNK N   1      20.824  12.307  16.030  0.00  0.00     0.061 C 
HETATM   29  C   UNK N   1      20.024  11.409  15.060  0.00  0.00     0.046 C 
HETATM   30  C   UNK N   1      20.536  13.776  15.680  0.00  0.00     0.046 C 
HETATM   31  C   UNK N   1      22.337  12.049  15.879  0.00  0.00     0.046 C 
ENDBRANCH  27  28
ENDBRANCH  24  27
ENDBRANCH  18  19
ENDBRANCH  15  18
ENDBRANCH   9  12
ENDBRANCH   1   8
BRANCH   3  32
HETATM   32  N   UNK N   1       8.284  21.017  21.581  0.00  0.00    -0.191 N 
HETATM   33  C   UNK N   1       7.763  21.186  20.263  0.00  0.00     0.683 A 
HETATM   34  N   UNK N   1       8.443  20.758  19.165  0.00  0.00    -0.191 N 
HETATM   35  N   UNK N   1       6.588  21.851  20.104  0.00  0.00    -0.202 N 
HETATM   36  C   UNK N   1       7.958  20.934  17.904  0.00  0.00     0.062 A 
ATOM     37  HN  UNK N   1       9.341  20.291  19.290  1.00  0.00     0.184 HD
HETATM   38  C   UNK N   1       6.729  21.600  17.742  0.00  0.00     0.048 A 
HETATM   39  C   UNK N   1       6.062  22.061  18.872  0.00  0.00     0.108 A 
ATOM     40  HN  UNK N   1       6.094  22.198  20.925  1.00  0.00     0.183 HD
HETATM   41  H   UNK N   1       7.812  21.565  22.313  0.00  0.00     0.184 HD
BRANCH  36  42
HETATM   42  C   UNK N   1       8.748  20.429  16.740  0.00  0.00     0.007 A 
HETATM   43  C   UNK N   1       9.208  19.099  16.732  0.00  0.00     0.016 A 
HETATM   44  C   UNK N   1       9.952  18.620  15.653  0.00  0.00     0.018 A 
HETATM   45  C   UNK N   1      10.225  19.465  14.578  0.00  0.00     0.087 A 
HETATM   46  N   UNK N   1       9.772  20.745  14.587  0.00  0.00    -0.374 N 
HETATM   47  C   UNK N   1       9.054  21.244  15.630  0.00  0.00     0.101 A 
ATOM     48  HN  UNK N   1       9.977  21.349  13.791  1.00  0.00     0.164 HD
ENDBRANCH  36  42
ENDBRANCH   3  32
TORSDOF 8
ENDMDL
MODEL 2
REMARK VINA RESULT:      -5.6      1.659      2.383
REMARK  8 active torsions:
REMARK  status: ('A' for Active; 'I' for Inactive)
REMARK    1  A    between atoms: O_1  and  C_19 
REMARK    2  A    between atoms: O_1  and  C_21 
REMARK    3  A    between atoms: N_4  and  C_18 
REMARK       I    between atoms: N_5  and  C_19 
REMARK       I    between atoms: N_6  and  C_30 
REMARK    4  A    between atoms: N_6  and  C_31 
REMARK    5  A    between atoms: N_7  and  C_33 
REMARK       I    between atoms: N_7  and  C_38 
REMARK    6  A    between atoms: C_18  and  C_20 
REMARK    7  A    between atoms: C_29  and  C_30 
REMARK    8  A    between atoms: C_39  and  C_40 
ROOT
HETATM    1  C   UNK N   1      11.420  18.054  21.260  0.00  0.00     0.037 A 
HETATM    2  C   UNK N   1      10.486  18.784  20.479  0.00  0.00     0.060 A 
HETATM    3  C   UNK N   1       9.772  19.882  21.031  0.00  0.00     0.057 A 
HETATM    4  C   UNK N   1      11.621  18.446  22.591  0.00  0.00     0.030 A 
HETATM    5  C   UNK N   1       9.998  20.229  22.389  0.00  0.00    -0.035 A 
HETATM    6  C   UNK N   1      10.928  19.510  23.146  0.00  0.00     0.011 A 
HETATM    7  C   UNK N   1       9.267  21.372  23.046  0.00  0.00     0.050 C 
ENDROOT
BRANCH   1   8
HETATM    8  N   UNK N   1      12.171  16.915  20.790  0.00  0.00    -0.323 N 
HETATM    9  C   UNK N   1      12.202  16.382  19.524  0.00  0.00     0.256 C 
HETATM   10  O   UNK N   1      11.565  16.893  18.618  0.00  0.00    -0.267 OA
HETATM   11  H   UNK N   1      12.777  16.487  21.497  0.00  0.00     0.169 HD
BRANCH   9  12
HETATM   12  C   UNK N   1      13.063  15.183  19.203  0.00  0.00     0.032 A 
HETATM   13  C   UNK N   1      13.116  14.700  17.877  0.00  0.00     0.017 A 
HETATM   14  C   UNK N   1      13.933  13.613  17.543  0.00  0.00     0.010 A 
HETATM   15  C   UNK N   1      14.715  12.986  18.522  0.00  0.00    -0.030 A 
HETATM   16  C   UNK N   1      14.653  13.442  19.843  0.00  0.00     0.010 A 
HETATM   17  C   UNK N   1      13.837  14.520  20.185  0.00  0.00     0.017 A 
BRANCH  15  18
HETATM   18  C   UNK N   1      15.642  11.848  18.177  0.00  0.00     0.311 C 
BRANCH  18  19
HETATM   19  N   UNK N   1      16.660  12.328  17.220  0.00  0.00     0.095 N 
HETATM   20  C   UNK N   1      16.373  11.813  15.859  0.00  0.00     0.292 C 
HETATM   21  C   UNK N   1      17.355  12.412  14.855  0.00  0.00     0.158 C 
HETATM   22  N   UNK N   1      18.712  12.134  15.306  0.00  0.00    -0.325 N 
HETATM   23  C   UNK N   1      19.049  12.569  16.654  0.00  0.00     0.158 C 
HETATM   24  C   UNK N   1      19.620  11.492  14.504  0.00  0.00     0.363 C 
HETATM   25  C   UNK N   1      18.032  11.959  17.633  0.00  0.00     0.292 C 
HETATM   26  O   UNK N   1      19.290  11.114  13.389  0.00  0.00    -0.238 OA
BRANCH  24  27
HETATM   27  O   UNK N   1      20.903  11.312  14.936  0.00  0.00    -0.294 OA
BRANCH  27  28
HETATM   28  C   UNK N   1      22.064  11.864  14.394  0.00  0.00     0.061 C 
HETATM   29  C   UNK N   1      22.341  11.287  12.987  0.00  0.00     0.046 C 
HETATM   30  C   UNK N   1      21.833  13.377  14.260  0.00  0.00     0.046 C 
HETATM   31  C   UNK N   1      23.274  11.627  15.320  0.00  0.00     0.046 C 
ENDBRANCH  27  28
ENDBRANCH  24  27
ENDBRANCH  18  19
ENDBRANCH  15  18
ENDBRANCH   9  12
ENDBRANCH   1   8
BRANCH   3  32
HETATM   32  N   UNK N   1       8.802  20.625  20.268  0.00  0.00    -0.191 N 
HETATM   33  C   UNK N   1       8.402  20.375  18.922  0.00  0.00     0.683 A 
HETATM   34  N   UNK N   1       9.087  19.512  18.122  0.00  0.00    -0.191 N 
HETATM   35  N   UNK N   1       7.351  21.067  18.411  0.00  0.00    -0.202 N 
HETATM   36  C   UNK N   1       8.719  19.285  16.829  0.00  0.00     0.062 A 
ATOM     37  HN  UNK N   1       9.897  19.022  18.500  1.00  0.00     0.184 HD
HETATM   38  C   UNK N   1       7.614  19.984  16.310  0.00  0.00     0.048 A 
HETATM   39  C   UNK N   1       6.946  20.886  17.130  0.00  0.00     0.108 A 
ATOM     40  HN  UNK N   1       6.857  21.737  19.002  1.00  0.00     0.183 HD
HETATM   41  H   UNK N   1       8.366  21.446  20.710  0.00  0.00     0.184 HD
BRANCH  36  42
HETATM   42  C   UNK N   1       9.505  18.315  16.007  0.00  0.00     0.007 A 
HETATM   43  C   UNK N   1       9.125  16.961  15.970  0.00  0.00     0.016 A 
HETATM   44  C   UNK N   1       9.857  16.046  15.210  0.00  0.00     0.018 A 
HETATM   45  C   UNK N   1      10.958  16.488  14.479  0.00  0.00     0.087 A 
HETATM   46  N   UNK N   1      11.316  17.797  14.512  0.00  0.00    -0.374 N 
HETATM   47  C   UNK N   1      10.630  18.709  15.252  0.00  0.00     0.101 A 
ATOM     48  HN  UNK N   1      12.122  18.104  13.967  1.00  0.00     0.164 HD
ENDBRANCH  36  42
ENDBRANCH   3  32
TORSDOF 8
ENDMDL
MODEL 3
REMARK VINA RESULT:      -3.7      2.136      4.745
REMARK  8 active torsions:
REMARK  status: ('A' for Active; 'I' for Inactive)
REMARK    1  A    between atoms: O_1  and  C_19 
REMARK    2  A    between atoms: O_1  and  C_21 
REMARK    3  A    between atoms: N_4  and  C_18 
REMARK       I    between atoms: N_5  and  C_19 
REMARK       I    between atoms: N_6  and  C_30 
REMARK    4  A    between atoms: N_6  and  C_31 
REMARK    5  A    between atoms: N_7  and  C_33 
REMARK       I    between atoms: N_7  and  C_38 
REMARK    6  A    between atoms: C_18  and  C_20 
REMARK    7  A    between atoms: C_29  and  C_30 
REMARK    8  A    between atoms: C_39  and  C_40 
ROOT
HETATM    1  C   UNK N   1      11.209  16.523  16.439  0.00  0.00     0.037 A 
HETATM    2  C   UNK N   1      11.230  17.888  16.827  0.00  0.00     0.060 A 
HETATM    3  C   UNK N   1      10.265  18.805  16.327  0.00  0.00     0.057 A 
HETATM    4  C   UNK N   1      10.210  16.101  15.551  0.00  0.00     0.030 A 
HETATM    5  C   UNK N   1       9.284  18.332  15.416  0.00  0.00    -0.035 A 
HETATM    6  C   UNK N   1       9.267  16.984  15.049  0.00  0.00     0.011 A 
HETATM    7  C   UNK N   1       8.238  19.249  14.834  0.00  0.00     0.050 C 
ENDROOT
BRANCH   1   8
HETATM    8  N   UNK N   1      12.159  15.530  16.878  0.00  0.00    -0.323 N 
HETATM    9  C   UNK N   1      12.726  15.387  18.122  0.00  0.00     0.256 C 
HETATM   10  O   UNK N   1      12.420  16.136  19.034  0.00  0.00    -0.267 OA
HETATM   11  H   UNK N   1      12.401  14.832  16.167  0.00  0.00     0.169 HD
BRANCH   9  12
HETATM   12  C   UNK N   1      13.701  14.272  18.412  0.00  0.00     0.032 A 
HETATM   13  C   UNK N   1      14.163  14.076  19.732  0.00  0.00     0.017 A 
HETATM   14  C   UNK N   1      15.040  13.028  20.037  0.00  0.00     0.010 A 
HETATM   15  C   UNK N   1      15.473  12.152  19.033  0.00  0.00    -0.030 A 
HETATM   16  C   UNK N   1      15.041  12.350  17.718  0.00  0.00     0.010 A 
HETATM   17  C   UNK N   1      14.172  13.394  17.405  0.00  0.00     0.017 A 
BRANCH  15  18
HETATM   18  C   UNK N   1      16.376  10.984  19.346  0.00  0.00     0.311 C 
BRANCH  18  19
HETATM   19  N   UNK N   1      17.701  11.223  18.738  0.00  0.00     0.095 N 
HETATM   20  C   UNK N   1      18.011  12.673  18.727  0.00  0.00     0.292 C 
HETATM   21  C   UNK N   1      19.430  12.902  18.212  0.00  0.00     0.158 C 
HETATM   22  N   UNK N   1      19.559  12.271  16.905  0.00  0.00    -0.325 N 
HETATM   23  C   UNK N   1      19.223  10.856  16.832  0.00  0.00     0.158 C 
HETATM   24  C   UNK N   1      19.970  12.976  15.803  0.00  0.00     0.363 C 
HETATM   25  C   UNK N   1      17.796  10.664  17.372  0.00  0.00     0.292 C 
HETATM   26  O   UNK N   1      20.214  14.170  15.897  0.00  0.00    -0.238 OA
BRANCH  24  27
HETATM   27  O   UNK N   1      20.147  12.334  14.610  0.00  0.00    -0.294 OA
BRANCH  27  28
HETATM   28  C   UNK N   1      21.290  11.667  14.169  0.00  0.00     0.061 C 
HETATM   29  C   UNK N   1      22.395  11.698  15.249  0.00  0.00     0.046 C 
HETATM   30  C   UNK N   1      20.898  10.203  13.919  0.00  0.00     0.046 C 
HETATM   31  C   UNK N   1      21.810  12.273  12.850  0.00  0.00     0.046 C 
ENDBRANCH  27  28
ENDBRANCH  24  27
ENDBRANCH  18  19
ENDBRANCH  15  18
ENDBRANCH   9  12
ENDBRANCH   1   8
BRANCH   3  32
HETATM   32  N   UNK N   1      10.277  20.199  16.686  0.00  0.00    -0.191 N 
HETATM   33  C   UNK N   1       9.949  20.755  17.958  0.00  0.00     0.683 A 
HETATM   34  N   UNK N   1       9.354  20.012  18.931  0.00  0.00    -0.191 N 
HETATM   35  N   UNK N   1      10.178  22.078  18.174  0.00  0.00    -0.202 N 
HETATM   36  C   UNK N   1       9.022  20.545  20.141  0.00  0.00     0.062 A 
ATOM     37  HN  UNK N   1       9.153  19.029  18.750  1.00  0.00     0.184 HD
HETATM   38  C   UNK N   1       9.283  21.908  20.372  0.00  0.00     0.048 A 
HETATM   39  C   UNK N   1       9.860  22.661  19.356  0.00  0.00     0.108 A 
ATOM     40  HN  UNK N   1      10.595  22.641  17.433  1.00  0.00     0.183 HD
HETATM   41  H   UNK N   1      10.511  20.885  15.955  0.00  0.00     0.184 HD
BRANCH  36  42
HETATM   42  C   UNK N   1       8.383  19.672  21.172  0.00  0.00     0.007 A 
HETATM   43  C   UNK N   1       7.757  20.253  22.291  0.00  0.00     0.016 A 
HETATM   44  C   UNK N   1       7.164  19.445  23.262  0.00  0.00     0.018 A 
HETATM   45  C   UNK N   1       7.186  18.060  23.111  0.00  0.00     0.087 A 
HETATM   46  N   UNK N   1       7.785  17.504  22.026  0.00  0.00    -0.374 N 
HETATM   47  C   UNK N   1       8.381  18.264  21.068  0.00  0.00     0.101 A 
ATOM     48  HN  UNK N   1       7.789  16.489  21.928  1.00  0.00     0.164 HD
ENDBRANCH  36  42
ENDBRANCH   3  32
TORSDOF 8
ENDMDL
