MODEL 1
REMARK VINA RESULT:     -10.3      0.000      0.000
REMARK  6 active torsions:
REMARK  status: ('A' for Active; 'I' for Inactive)
REMARK    1  A    between atoms: N_2  and  C_16 
REMARK       I    between atoms: N_4  and  C_24 
REMARK    2  A    between atoms: N_4  and  C_25 
REMARK    3  A    between atoms: N_5  and  C_26 
REMARK       I    between atoms: N_5  and  C_32 
REMARK    4  A    between atoms: C_16  and  C_18 
REMARK    5  A    between atoms: C_23  and  C_24 
REMARK    6  A    between atoms: C_33  and  C_34 
ROOT
HETATM    1  C   UNK N   1      10.805  17.794  16.884  0.00  0.00     0.037 A 
HETATM    2  C   UNK N   1       8.988  19.228  17.740  0.00  0.00     0.057 A 
HETATM    3  C   UNK N   1       9.847  18.105  17.880  0.00  0.00     0.060 A 
HETATM    4  C   UNK N   1       9.118  20.045  16.585  0.00  0.00    -0.035 A 
HETATM    5  C   UNK N   1      10.883  18.616  15.752  0.00  0.00     0.030 A 
HETATM    6  C   UNK N   1      10.056  19.719  15.603  0.00  0.00     0.011 A 
HETATM    7  C   UNK N   1       8.257  21.264  16.378  0.00  0.00     0.050 C 
ENDROOT
BRANCH   1   8
HETATM    8  N   UNK N   1      11.739  16.702  16.965  0.00  0.00    -0.323 N 
HETATM    9  C   UNK N   1      12.136  16.010  18.083  0.00  0.00     0.256 C 
HETATM   10  O   UNK N   1      11.641  16.249  19.172  0.00  0.00    -0.267 OA
HETATM   11  H   UNK N   1      12.107  16.383  16.061  0.00  0.00     0.169 HD
BRANCH   9  12
HETATM   12  C   UNK N   1      13.133  14.893  17.973  0.00  0.00     0.032 A 
HETATM   13  C   UNK N   1      13.156  13.823  18.897  0.00  0.00     0.017 A 
HETATM   14  C   UNK N   1      14.114  12.817  18.798  0.00  0.00     0.010 A 
HETATM   15  C   UNK N   1      15.084  12.858  17.793  0.00  0.00    -0.030 A 
HETATM   16  C   UNK N   1      15.062  13.900  16.854  0.00  0.00     0.010 A 
HETATM   17  C   UNK N   1      14.087  14.903  16.934  0.00  0.00     0.017 A 
BRANCH  15  18
HETATM   18  C   UNK N   1      16.152  11.793  17.749  0.00  0.00     0.311 C 
BRANCH  18  19
HETATM   19  N   UNK N   1      17.397  12.312  17.139  0.00  0.00     0.096 N 
HETATM   20  C   UNK N   1      17.725  11.670  15.848  0.00  0.00     0.303 C 
HETATM   21  C   UNK N   1      18.966  12.340  15.247  0.00  0.00     0.302 C 
HETATM   22  N   UNK N   1      20.104  12.211  16.177  0.00  0.00     0.087 N 
HETATM   23  C   UNK N   1      19.777  12.834  17.473  0.00  0.00     0.302 C 
HETATM   24  C   UNK N   1      21.308  12.828  15.603  0.00  0.00     0.310 C 
HETATM   25  C   UNK N   1      18.530  12.174  18.071  0.00  0.00     0.303 C 
ENDBRANCH  18  19
ENDBRANCH  15  18
ENDBRANCH   9  12
ENDBRANCH   1   8
BRANCH   2  26
HETATM   26  N   UNK N   1       8.028  19.585  18.750  0.00  0.00    -0.191 N 
HETATM   27  C   UNK N   1       8.292  19.810  20.134  0.00  0.00     0.683 A 
HETATM   28  N   UNK N   1       9.482  19.468  20.699  0.00  0.00    -0.191 N 
HETATM   29  N   UNK N   1       7.301  20.314  20.915  0.00  0.00    -0.202 N 
HETATM   30  C   UNK N   1       9.729  19.662  22.027  0.00  0.00     0.062 A 
ATOM     31  HN  UNK N   1      10.210  19.057  20.115  1.00  0.00     0.184 HD
HETATM   32  C   UNK N   1       8.710  20.209  22.828  0.00  0.00     0.048 A 
HETATM   33  C   UNK N   1       7.489  20.522  22.242  0.00  0.00     0.108 A 
ATOM     34  HN  UNK N   1       6.399  20.540  20.497  1.00  0.00     0.183 HD
HETATM   35  H   UNK N   1       7.040  19.662  18.472  0.00  0.00     0.184 HD
BRANCH  30  36
HETATM   36  C   UNK N   1      11.059  19.278  22.588  0.00  0.00     0.007 A 
HETATM   37  C   UNK N   1      11.547  19.920  23.740  0.00  0.00     0.016 A 
HETATM   38  C   UNK N   1      12.791  19.572  24.267  0.00  0.00     0.018 A 
HETATM   39  C   UNK N   1      13.542  18.574  23.649  0.00  0.00     0.087 A 
HETATM   40  N   UNK N   1      13.066  17.951  22.542  0.00  0.00    -0.374 N 
HETATM   41  C   UNK N   1      11.861  18.276  21.998  0.00  0.00     0.101 A 
ATOM     42  HN  UNK N   1      13.625  17.220  22.104  1.00  0.00     0.164 HD
ENDBRANCH  30  36
ENDBRANCH   2  26
TORSDOF 6
ENDMDL
MODEL 2
REMARK VINA RESULT:      -9.0      2.531     11.553
REMARK  6 active torsions:
REMARK  status: ('A' for Active; 'I' for Inactive)
REMARK    1  A    between atoms: N_2  and  C_16 
REMARK       I    between atoms: N_4  and  C_24 
REMARK    2  A    between atoms: N_4  and  C_25 
REMARK    3  A    between atoms: N_5  and  C_26 
REMARK       I    between atoms: N_5  and  C_32 
REMARK    4  A    between atoms: C_16  and  C_18 
REMARK    5  A    between atoms: C_23  and  C_24 
REMARK    6  A    between atoms: C_33  and  C_34 
ROOT
HETATM    1  C   UNK N   1      13.206  14.128  18.825  0.00  0.00     0.037 A 
HETATM    2  C   UNK N   1      15.418  13.217  19.431  0.00  0.00     0.057 A 
HETATM    3  C   UNK N   1      14.549  14.323  19.234  0.00  0.00     0.060 A 
HETATM    4  C   UNK N   1      14.912  11.906  19.226  0.00  0.00    -0.035 A 
HETATM    5  C   UNK N   1      12.756  12.818  18.615  0.00  0.00     0.030 A 
HETATM    6  C   UNK N   1      13.590  11.728  18.809  0.00  0.00     0.011 A 
HETATM    7  C   UNK N   1      15.769  10.685  19.437  0.00  0.00     0.050 C 
ENDROOT
BRANCH   1   8
HETATM    8  N   UNK N   1      12.248  15.186  18.641  0.00  0.00    -0.323 N 
HETATM    9  C   UNK N   1      12.108  16.020  17.559  0.00  0.00     0.256 C 
HETATM   10  O   UNK N   1      12.803  15.875  16.566  0.00  0.00    -0.267 OA
HETATM   11  H   UNK N   1      11.565  15.284  19.400  0.00  0.00     0.169 HD
BRANCH   9  12
HETATM   12  C   UNK N   1      11.044  17.079  17.547  0.00  0.00     0.032 A 
HETATM   13  C   UNK N   1      10.922  17.998  16.479  0.00  0.00     0.017 A 
HETATM   14  C   UNK N   1       9.951  18.996  16.506  0.00  0.00     0.010 A 
HETATM   15  C   UNK N   1       9.092  19.121  17.601  0.00  0.00    -0.030 A 
HETATM   16  C   UNK N   1       9.185  18.203  18.659  0.00  0.00     0.010 A 
HETATM   17  C   UNK N   1      10.144  17.183  18.627  0.00  0.00     0.017 A 
BRANCH  15  18
HETATM   18  C   UNK N   1       8.095  20.252  17.638  0.00  0.00     0.311 C 
BRANCH  18  19
HETATM   19  N   UNK N   1       7.785  20.644  19.031  0.00  0.00     0.096 N 
HETATM   20  C   UNK N   1       6.444  21.248  19.182  0.00  0.00     0.303 C 
HETATM   21  C   UNK N   1       6.175  21.526  20.665  0.00  0.00     0.302 C 
HETATM   22  N   UNK N   1       7.202  22.441  21.198  0.00  0.00     0.087 N 
HETATM   23  C   UNK N   1       8.544  21.851  21.035  0.00  0.00     0.302 C 
HETATM   24  C   UNK N   1       6.942  22.735  22.615  0.00  0.00     0.310 C 
HETATM   25  C   UNK N   1       8.812  21.563  19.554  0.00  0.00     0.303 C 
ENDBRANCH  18  19
ENDBRANCH  15  18
ENDBRANCH   9  12
ENDBRANCH   1   8
BRANCH   2  26
HETATM   26  N   UNK N   1      16.777  13.384  19.875  0.00  0.00    -0.191 N 
HETATM   27  C   UNK N   1      17.954  13.245  19.082  0.00  0.00     0.683 A 
HETATM   28  N   UNK N   1      17.919  12.692  17.839  0.00  0.00    -0.191 N 
HETATM   29  N   UNK N   1      19.150  13.613  19.616  0.00  0.00    -0.202 N 
HETATM   30  C   UNK N   1      19.047  12.538  17.088  0.00  0.00     0.062 A 
ATOM     31  HN  UNK N   1      17.024  12.385  17.458  1.00  0.00     0.184 HD
HETATM   32  C   UNK N   1      20.278  12.944  17.632  0.00  0.00     0.048 A 
HETATM   33  C   UNK N   1      20.303  13.477  18.916  0.00  0.00     0.108 A 
ATOM     34  HN  UNK N   1      19.180  13.998  20.559  1.00  0.00     0.183 HD
HETATM   35  H   UNK N   1      16.938  13.598  20.869  0.00  0.00     0.184 HD
BRANCH  30  36
HETATM   36  C   UNK N   1      18.941  11.934  15.725  0.00  0.00     0.007 A 
HETATM   37  C   UNK N   1      20.108  11.656  14.989  0.00  0.00     0.016 A 
HETATM   38  C   UNK N   1      20.019  11.098  13.714  0.00  0.00     0.018 A 
HETATM   39  C   UNK N   1      18.766  10.807  13.178  0.00  0.00     0.087 A 
HETATM   40  N   UNK N   1      17.643  11.070  13.893  0.00  0.00    -0.374 N 
HETATM   41  C   UNK N   1      17.696  11.624  15.135  0.00  0.00     0.101 A 
ATOM     42  HN  UNK N   1      16.734  10.848  13.489  1.00  0.00     0.164 HD
ENDBRANCH  30  36
ENDBRANCH   2  26
TORSDOF 6
ENDMDL
