MODEL 1
REMARK VINA RESULT:      -9.3      0.000      0.000
REMARK  7 active torsions:
REMARK  status: ('A' for Active; 'I' for Inactive)
REMARK    1  A    between atoms: O_3  and  C_31 
REMARK    2  A    between atoms: O_3  and  C_32 
REMARK       I    between atoms: N_4  and  C_19 
REMARK    3  A    between atoms: N_5  and  C_13 
REMARK    4  A    between atoms: N_12  and  C_23 
REMARK    5  A    between atoms: C_19  and  C_22 
REMARK    6  A    between atoms: C_21  and  C_24 
REMARK    7  A    between atoms: C_22  and  C_25 
ROOT
HETATM    1  N   UNK N   1      11.006  17.412  19.524  0.00  0.00    -0.269 N 
HETATM    2  N   UNK N   1      11.997  16.533  19.602  0.00  0.00    -0.295 N 
ATOM      3  HN  UNK N   1      12.609  16.391  20.406  1.00  0.00     0.187 HD
HETATM    4  N   UNK N   1       9.388  18.017  17.832  0.00  0.00    -0.337 N 
ATOM      5  HN  UNK N   1       8.938  18.734  18.402  1.00  0.00     0.168 HD
HETATM    6  N   UNK N   1       9.569  16.788  15.806  0.00  0.00    -0.338 N 
ATOM      7  HN  UNK N   1       9.230  16.607  14.861  1.00  0.00     0.168 HD
HETATM    8  C   UNK N   1      10.433  17.304  18.312  0.00  0.00     0.140 A 
HETATM    9  C   UNK N   1      11.062  16.338  17.588  0.00  0.00     0.082 A 
HETATM   10  C   UNK N   1      12.053  15.859  18.432  0.00  0.00     0.076 A 
HETATM   11  C   UNK N   1      10.624  16.065  16.287  0.00  0.00     0.116 A 
HETATM   12  C   UNK N   1       8.954  17.753  16.564  0.00  0.00     0.183 A 
ENDROOT
BRANCH  10  13
HETATM   13  C   UNK N   1      13.043  14.823  18.173  0.00  0.00    -0.007 A 
HETATM   14  C   UNK N   1      12.977  13.596  18.847  0.00  0.00     0.016 A 
HETATM   15  C   UNK N   1      13.942  12.612  18.604  0.00  0.00     0.038 A 
HETATM   16  C   UNK N   1      14.961  12.851  17.675  0.00  0.00     0.076 A 
HETATM   17  C   UNK N   1      15.025  14.092  17.013  0.00  0.00     0.038 A 
HETATM   18  C   UNK N   1      14.074  15.072  17.266  0.00  0.00     0.016 A 
BRANCH  16  19
HETATM   19  O   UNK N   1      15.876  11.891  17.403  0.00  0.00    -0.311 OA
BRANCH  19  20
HETATM   20  C   UNK N   1      17.201  12.182  17.372  0.00  0.00     0.076 A 
HETATM   21  C   UNK N   1      17.923  12.055  16.170  0.00  0.00     0.037 A 
HETATM   22  C   UNK N   1      19.278  12.376  16.126  0.00  0.00     0.003 A 
HETATM   23  C   UNK N   1      19.922  12.833  17.279  0.00  0.00     0.000 A 
HETATM   24  C   UNK N   1      19.210  12.958  18.478  0.00  0.00     0.003 A 
HETATM   25  C   UNK N   1      17.851  12.623  18.528  0.00  0.00     0.037 A 
ENDBRANCH  19  20
ENDBRANCH  16  19
ENDBRANCH  10  13
BRANCH   1  26
HETATM   26  C   UNK N   1      10.642  18.320  20.609  0.00  0.00     0.128 C 
HETATM   27  C   UNK N   1      11.614  18.151  21.792  0.00  0.00     0.030 C 
HETATM   28  C   UNK N   1      11.204  19.073  22.950  0.00  0.00     0.022 C 
HETATM   29  C   UNK N   1       9.761  18.776  23.375  0.00  0.00     0.126 C 
HETATM   30  N   UNK N   1       8.884  18.884  22.209  0.00  0.00    -0.350 N 
HETATM   31  C   UNK N   1       9.205  18.025  21.072  0.00  0.00     0.153 C 
HETATM   32  C   UNK N   1       7.812  19.748  22.162  0.00  0.00     0.220 C 
HETATM   33  O   UNK N   1       7.115  19.798  21.156  0.00  0.00    -0.273 OA
BRANCH  32  34
HETATM   34  C   UNK N   1       7.459  20.643  23.335  0.00  0.00     0.118 C 
BRANCH  34  35
HETATM   35  C   UNK N   1       7.692  22.130  23.056  0.00  0.00     0.124 C 
HETATM   36 Cl   UNK N   1       9.256  22.358  22.235  0.00  0.00    -0.130 Cl
ENDBRANCH  34  35
ENDBRANCH  32  34
ENDBRANCH   1  26
BRANCH  11  37
HETATM   37  N   UNK N   1      11.232  15.079  15.471  0.00  0.00    -0.385 N 
HETATM   38  H   UNK N   1      11.910  14.407  15.852  0.00  0.00     0.157 HD
HETATM   39  H   UNK N   1      10.998  15.030  14.469  0.00  0.00     0.157 HD
ENDBRANCH  11  37
TORSDOF 7
ENDMDL
MODEL 2
REMARK VINA RESULT:      -7.3      3.533      5.844
REMARK  7 active torsions:
REMARK  status: ('A' for Active; 'I' for Inactive)
REMARK    1  A    between atoms: O_3  and  C_31 
REMARK    2  A    between atoms: O_3  and  C_32 
REMARK       I    between atoms: N_4  and  C_19 
REMARK    3  A    between atoms: N_5  and  C_13 
REMARK    4  A    between atoms: N_12  and  C_23 
REMARK    5  A    between atoms: C_19  and  C_22 
REMARK    6  A    between atoms: C_21  and  C_24 
REMARK    7  A    between atoms: C_22  and  C_25 
ROOT
HETATM    1  N   UNK N   1      13.850  14.418  17.764  0.00  0.00    -0.269 N 
HETATM    2  N   UNK N   1      14.762  14.153  16.839  0.00  0.00    -0.295 N 
ATOM      3  HN  UNK N   1      14.961  14.720  16.015  1.00  0.00     0.187 HD
HETATM    4  N   UNK N   1      13.115  13.338  19.799  0.00  0.00    -0.337 N 
ATOM      5  HN  UNK N   1      12.411  14.044  20.017  1.00  0.00     0.168 HD
HETATM    6  N   UNK N   1      14.253  11.316  20.312  0.00  0.00    -0.338 N 
ATOM      7  HN  UNK N   1      14.379  10.519  20.936  1.00  0.00     0.168 HD
HETATM    8  C   UNK N   1      13.883  13.444  18.691  0.00  0.00     0.140 A 
HETATM    9  C   UNK N   1      14.833  12.526  18.362  0.00  0.00     0.082 A 
HETATM   10  C   UNK N   1      15.383  13.001  17.180  0.00  0.00     0.076 A 
HETATM   11  C   UNK N   1      15.031  11.419  19.194  0.00  0.00     0.116 A 
HETATM   12  C   UNK N   1      13.306  12.262  20.617  0.00  0.00     0.183 A 
ENDROOT
BRANCH  10  13
HETATM   13  C   UNK N   1      16.437  12.411  16.367  0.00  0.00    -0.007 A 
HETATM   14  C   UNK N   1      16.244  12.213  14.992  0.00  0.00     0.016 A 
HETATM   15  C   UNK N   1      17.256  11.630  14.222  0.00  0.00     0.038 A 
HETATM   16  C   UNK N   1      18.464  11.261  14.824  0.00  0.00     0.076 A 
HETATM   17  C   UNK N   1      18.642  11.453  16.207  0.00  0.00     0.038 A 
HETATM   18  C   UNK N   1      17.631  12.020  16.973  0.00  0.00     0.016 A 
BRANCH  16  19
HETATM   19  O   UNK N   1      19.465  10.733  14.080  0.00  0.00    -0.311 OA
BRANCH  19  20
HETATM   20  C   UNK N   1      20.710  11.269  14.109  0.00  0.00     0.076 A 
HETATM   21  C   UNK N   1      21.640  10.951  13.100  0.00  0.00     0.037 A 
HETATM   22  C   UNK N   1      22.912  11.518  13.112  0.00  0.00     0.003 A 
HETATM   23  C   UNK N   1      23.266  12.413  14.125  0.00  0.00     0.000 A 
HETATM   24  C   UNK N   1      22.348  12.730  15.134  0.00  0.00     0.003 A 
HETATM   25  C   UNK N   1      21.073  12.152  15.132  0.00  0.00     0.037 A 
ENDBRANCH  19  20
ENDBRANCH  16  19
ENDBRANCH  10  13
BRANCH   1  26
HETATM   26  C   UNK N   1      12.982  15.594  17.732  0.00  0.00     0.128 C 
HETATM   27  C   UNK N   1      12.344  15.821  19.116  0.00  0.00     0.030 C 
HETATM   28  C   UNK N   1      11.397  17.029  19.070  0.00  0.00     0.022 C 
HETATM   29  C   UNK N   1      10.323  16.817  17.997  0.00  0.00     0.126 C 
HETATM   30  N   UNK N   1      10.973  16.540  16.715  0.00  0.00    -0.350 N 
HETATM   31  C   UNK N   1      11.879  15.395  16.679  0.00  0.00     0.153 C 
HETATM   32  C   UNK N   1      10.761  17.310  15.591  0.00  0.00     0.220 C 
HETATM   33  O   UNK N   1      11.337  17.032  14.547  0.00  0.00    -0.273 OA
BRANCH  32  34
HETATM   34  C   UNK N   1       9.818  18.499  15.608  0.00  0.00     0.118 C 
BRANCH  34  35
HETATM   35  C   UNK N   1      10.519  19.824  15.920  0.00  0.00     0.124 C 
HETATM   36 Cl   UNK N   1       9.370  20.960  16.669  0.00  0.00    -0.130 Cl
ENDBRANCH  34  35
ENDBRANCH  32  34
ENDBRANCH   1  26
BRANCH  11  37
HETATM   37  N   UNK N   1      15.997  10.420  18.914  0.00  0.00    -0.385 N 
HETATM   38  H   UNK N   1      16.114  10.032  17.970  0.00  0.00     0.157 HD
HETATM   39  H   UNK N   1      16.599  10.067  19.671  0.00  0.00     0.157 HD
ENDBRANCH  11  37
TORSDOF 7
ENDMDL
MODEL 3
REMARK VINA RESULT:      -7.0      5.262     11.087
REMARK  7 active torsions:
REMARK  status: ('A' for Active; 'I' for Inactive)
REMARK    1  A    between atoms: O_3  and  C_31 
REMARK    2  A    between atoms: O_3  and  C_32 
REMARK       I    between atoms: N_4  and  C_19 
REMARK    3  A    between atoms: N_5  and  C_13 
REMARK    4  A    between atoms: N_12  and  C_23 
REMARK    5  A    between atoms: C_19  and  C_22 
REMARK    6  A    between atoms: C_21  and  C_24 
REMARK    7  A    between atoms: C_22  and  C_25 
ROOT
HETATM    1  N   UNK N   1      16.293  12.709  16.471  0.00  0.00    -0.269 N 
HETATM    2  N   UNK N   1      15.388  13.672  16.356  0.00  0.00    -0.295 N 
ATOM      3  HN  UNK N   1      15.379  14.403  15.645  1.00  0.00     0.187 HD
HETATM    4  N   UNK N   1      16.632  10.853  17.985  0.00  0.00    -0.337 N 
ATOM      5  HN  UNK N   1      17.481  10.525  17.523  1.00  0.00     0.168 HD
HETATM    6  N   UNK N   1      14.993  10.661  19.696  0.00  0.00    -0.338 N 
ATOM      7  HN  UNK N   1      14.639  10.166  20.514  1.00  0.00     0.168 HD
HETATM    8  C   UNK N   1      15.969  11.940  17.526  0.00  0.00     0.140 A 
HETATM    9  C   UNK N   1      14.833  12.412  18.110  0.00  0.00     0.082 A 
HETATM   10  C   UNK N   1      14.480  13.514  17.345  0.00  0.00     0.076 A 
HETATM   11  C   UNK N   1      14.321  11.758  19.236  0.00  0.00     0.116 A 
HETATM   12  C   UNK N   1      16.134  10.209  19.081  0.00  0.00     0.183 A 
ENDROOT
BRANCH  10  13
HETATM   13  C   UNK N   1      13.350  14.416  17.520  0.00  0.00    -0.007 A 
HETATM   14  C   UNK N   1      12.330  14.468  16.559  0.00  0.00     0.016 A 
HETATM   15  C   UNK N   1      11.256  15.349  16.728  0.00  0.00     0.038 A 
HETATM   16  C   UNK N   1      11.196  16.164  17.864  0.00  0.00     0.076 A 
HETATM   17  C   UNK N   1      12.232  16.112  18.816  0.00  0.00     0.038 A 
HETATM   18  C   UNK N   1      13.304  15.246  18.640  0.00  0.00     0.016 A 
BRANCH  16  19
HETATM   19  O   UNK N   1      10.142  16.991  18.057  0.00  0.00    -0.311 OA
BRANCH  19  20
HETATM   20  C   UNK N   1       9.937  18.058  17.245  0.00  0.00     0.076 A 
HETATM   21  C   UNK N   1       8.809  18.881  17.429  0.00  0.00     0.037 A 
HETATM   22  C   UNK N   1       8.607  19.991  16.613  0.00  0.00     0.003 A 
HETATM   23  C   UNK N   1       9.533  20.296  15.612  0.00  0.00     0.000 A 
HETATM   24  C   UNK N   1      10.655  19.481  15.421  0.00  0.00     0.003 A 
HETATM   25  C   UNK N   1      10.853  18.356  16.231  0.00  0.00     0.037 A 
ENDBRANCH  19  20
ENDBRANCH  16  19
ENDBRANCH  10  13
BRANCH   1  26
HETATM   26  C   UNK N   1      17.432  12.556  15.568  0.00  0.00     0.128 C 
HETATM   27  C   UNK N   1      17.234  11.321  14.668  0.00  0.00     0.030 C 
HETATM   28  C   UNK N   1      18.451  11.134  13.751  0.00  0.00     0.022 C 
HETATM   29  C   UNK N   1      19.728  11.006  14.589  0.00  0.00     0.126 C 
HETATM   30  N   UNK N   1      19.841  12.167  15.474  0.00  0.00    -0.350 N 
HETATM   31  C   UNK N   1      18.725  12.400  16.386  0.00  0.00     0.153 C 
HETATM   32  C   UNK N   1      20.930  13.011  15.459  0.00  0.00     0.220 C 
HETATM   33  O   UNK N   1      20.967  13.969  16.221  0.00  0.00    -0.273 OA
BRANCH  32  34
HETATM   34  C   UNK N   1      22.102  12.781  14.523  0.00  0.00     0.118 C 
BRANCH  34  35
HETATM   35  C   UNK N   1      22.787  11.427  14.730  0.00  0.00     0.124 C 
HETATM   36 Cl   UNK N   1      23.274  10.743  13.160  0.00  0.00    -0.130 Cl
ENDBRANCH  34  35
ENDBRANCH  32  34
ENDBRANCH   1  26
BRANCH  11  37
HETATM   37  N   UNK N   1      13.148  12.193  19.900  0.00  0.00    -0.385 N 
HETATM   38  H   UNK N   1      12.214  12.045  19.498  0.00  0.00     0.157 HD
HETATM   39  H   UNK N   1      13.223  12.675  20.807  0.00  0.00     0.157 HD
ENDBRANCH  11  37
TORSDOF 7
ENDMDL
MODEL 4
REMARK VINA RESULT:      -6.5      1.960      2.707
REMARK  7 active torsions:
REMARK  status: ('A' for Active; 'I' for Inactive)
REMARK    1  A    between atoms: O_3  and  C_31 
REMARK    2  A    between atoms: O_3  and  C_32 
REMARK       I    between atoms: N_4  and  C_19 
REMARK    3  A    between atoms: N_5  and  C_13 
REMARK    4  A    between atoms: N_12  and  C_23 
REMARK    5  A    between atoms: C_19  and  C_22 
REMARK    6  A    between atoms: C_21  and  C_24 
REMARK    7  A    between atoms: C_22  and  C_25 
ROOT
HETATM    1  N   UNK N   1      10.397  17.312  17.413  0.00  0.00    -0.269 N 
HETATM    2  N   UNK N   1      11.510  16.917  18.018  0.00  0.00    -0.295 N 
ATOM      3  HN  UNK N   1      12.014  17.433  18.740  1.00  0.00     0.187 HD
HETATM    4  N   UNK N   1       8.960  16.383  15.704  0.00  0.00    -0.337 N 
ATOM      5  HN  UNK N   1       8.309  17.168  15.709  1.00  0.00     0.168 HD
HETATM    6  N   UNK N   1       9.656  14.270  14.867  0.00  0.00    -0.338 N 
ATOM      7  HN  UNK N   1       9.497  13.486  14.235  1.00  0.00     0.168 HD
HETATM    8  C   UNK N   1      10.036  16.369  16.524  0.00  0.00     0.140 A 
HETATM    9  C   UNK N   1      10.929  15.342  16.551  0.00  0.00     0.082 A 
HETATM   10  C   UNK N   1      11.858  15.713  17.513  0.00  0.00     0.076 A 
HETATM   11  C   UNK N   1      10.743  14.251  15.694  0.00  0.00     0.116 A 
HETATM   12  C   UNK N   1       8.771  15.320  14.868  0.00  0.00     0.183 A 
ENDROOT
BRANCH  10  13
HETATM   13  C   UNK N   1      13.047  14.995  17.950  0.00  0.00    -0.007 A 
HETATM   14  C   UNK N   1      13.035  14.267  19.148  0.00  0.00     0.016 A 
HETATM   15  C   UNK N   1      14.187  13.594  19.569  0.00  0.00     0.038 A 
HETATM   16  C   UNK N   1      15.344  13.637  18.783  0.00  0.00     0.076 A 
HETATM   17  C   UNK N   1      15.349  14.382  17.589  0.00  0.00     0.038 A 
HETATM   18  C   UNK N   1      14.208  15.060  17.179  0.00  0.00     0.016 A 
BRANCH  16  19
HETATM   19  O   UNK N   1      16.452  12.956  19.161  0.00  0.00    -0.311 OA
BRANCH  19  20
HETATM   20  C   UNK N   1      17.486  12.780  18.302  0.00  0.00     0.076 A 
HETATM   21  C   UNK N   1      18.787  13.172  18.672  0.00  0.00     0.037 A 
HETATM   22  C   UNK N   1      19.857  12.971  17.803  0.00  0.00     0.003 A 
HETATM   23  C   UNK N   1      19.640  12.371  16.560  0.00  0.00     0.000 A 
HETATM   24  C   UNK N   1      18.349  11.982  16.184  0.00  0.00     0.003 A 
HETATM   25  C   UNK N   1      17.269  12.195  17.050  0.00  0.00     0.037 A 
ENDBRANCH  19  20
ENDBRANCH  16  19
ENDBRANCH  10  13
BRANCH   1  26
HETATM   26  C   UNK N   1       9.719  18.572  17.706  0.00  0.00     0.128 C 
HETATM   27  C   UNK N   1      10.286  19.699  16.821  0.00  0.00     0.030 C 
HETATM   28  C   UNK N   1       9.605  21.032  17.161  0.00  0.00     0.022 C 
HETATM   29  C   UNK N   1       9.790  21.355  18.648  0.00  0.00     0.126 C 
HETATM   30  N   UNK N   1       9.298  20.232  19.448  0.00  0.00    -0.350 N 
HETATM   31  C   UNK N   1       9.911  18.932  19.189  0.00  0.00     0.153 C 
HETATM   32  C   UNK N   1       8.307  20.370  20.395  0.00  0.00     0.220 C 
HETATM   33  O   UNK N   1       7.934  19.393  21.031  0.00  0.00    -0.273 OA
BRANCH  32  34
HETATM   34  C   UNK N   1       7.664  21.714  20.683  0.00  0.00     0.118 C 
BRANCH  34  35
HETATM   35  C   UNK N   1       6.229  21.824  20.160  0.00  0.00     0.124 C 
HETATM   36 Cl   UNK N   1       6.149  21.257  18.474  0.00  0.00    -0.130 Cl
ENDBRANCH  34  35
ENDBRANCH  32  34
ENDBRANCH   1  26
BRANCH  11  37
HETATM   37  N   UNK N   1      11.633  13.150  15.662  0.00  0.00    -0.385 N 
HETATM   38  H   UNK N   1      11.560  12.377  16.335  0.00  0.00     0.157 HD
HETATM   39  H   UNK N   1      12.378  13.115  14.950  0.00  0.00     0.157 HD
ENDBRANCH  11  37
TORSDOF 7
ENDMDL
MODEL 5
REMARK VINA RESULT:      -6.3      3.012      5.597
REMARK  7 active torsions:
REMARK  status: ('A' for Active; 'I' for Inactive)
REMARK    1  A    between atoms: O_3  and  C_31 
REMARK    2  A    between atoms: O_3  and  C_32 
REMARK       I    between atoms: N_4  and  C_19 
REMARK    3  A    between atoms: N_5  and  C_13 
REMARK    4  A    between atoms: N_12  and  C_23 
REMARK    5  A    between atoms: C_19  and  C_22 
REMARK    6  A    between atoms: C_21  and  C_24 
REMARK    7  A    between atoms: C_22  and  C_25 
ROOT
HETATM    1  N   UNK N   1      13.646  14.368  17.917  0.00  0.00    -0.269 N 
HETATM    2  N   UNK N   1      14.321  13.741  16.963  0.00  0.00    -0.295 N 
ATOM      3  HN  UNK N   1      13.984  13.551  16.019  1.00  0.00     0.187 HD
HETATM    4  N   UNK N   1      14.103  14.985  20.210  0.00  0.00    -0.337 N 
ATOM      5  HN  UNK N   1      13.196  15.429  20.358  1.00  0.00     0.168 HD
HETATM    6  N   UNK N   1      16.248  14.336  21.000  0.00  0.00    -0.338 N 
ATOM      7  HN  UNK N   1      16.928  14.311  21.760  1.00  0.00     0.168 HD
HETATM    8  C   UNK N   1      14.416  14.428  19.018  0.00  0.00     0.140 A 
HETATM    9  C   UNK N   1      15.614  13.827  18.777  0.00  0.00     0.082 A 
HETATM   10  C   UNK N   1      15.530  13.400  17.459  0.00  0.00     0.076 A 
HETATM   11  C   UNK N   1      16.569  13.772  19.798  0.00  0.00     0.116 A 
HETATM   12  C   UNK N   1      15.032  14.938  21.209  0.00  0.00     0.183 A 
ENDROOT
BRANCH  10  13
HETATM   13  C   UNK N   1      16.523  12.681  16.674  0.00  0.00    -0.007 A 
HETATM   14  C   UNK N   1      17.539  11.954  17.311  0.00  0.00     0.016 A 
HETATM   15  C   UNK N   1      18.499  11.279  16.548  0.00  0.00     0.038 A 
HETATM   16  C   UNK N   1      18.431  11.318  15.151  0.00  0.00     0.076 A 
HETATM   17  C   UNK N   1      17.414  12.061  14.522  0.00  0.00     0.038 A 
HETATM   18  C   UNK N   1      16.470  12.742  15.281  0.00  0.00     0.016 A 
BRANCH  16  19
HETATM   19  O   UNK N   1      19.330  10.635  14.404  0.00  0.00    -0.311 OA
BRANCH  19  20
HETATM   20  C   UNK N   1      20.587  11.112  14.222  0.00  0.00     0.076 A 
HETATM   21  C   UNK N   1      21.187  11.917  15.210  0.00  0.00     0.037 A 
HETATM   22  C   UNK N   1      22.486  12.389  15.039  0.00  0.00     0.003 A 
HETATM   23  C   UNK N   1      23.202  12.055  13.886  0.00  0.00     0.000 A 
HETATM   24  C   UNK N   1      22.610  11.258  12.899  0.00  0.00     0.003 A 
HETATM   25  C   UNK N   1      21.299  10.794  13.061  0.00  0.00     0.037 A 
ENDBRANCH  19  20
ENDBRANCH  16  19
ENDBRANCH  10  13
BRANCH   1  26
HETATM   26  C   UNK N   1      12.292  14.890  17.743  0.00  0.00     0.128 C 
HETATM   27  C   UNK N   1      11.882  14.817  16.259  0.00  0.00     0.030 C 
HETATM   28  C   UNK N   1      10.477  15.407  16.070  0.00  0.00     0.022 C 
HETATM   29  C   UNK N   1      10.438  16.852  16.581  0.00  0.00     0.126 C 
HETATM   30  N   UNK N   1      10.897  16.883  17.971  0.00  0.00    -0.350 N 
HETATM   31  C   UNK N   1      12.232  16.350  18.225  0.00  0.00     0.153 C 
HETATM   32  C   UNK N   1      10.125  17.377  18.999  0.00  0.00     0.220 C 
HETATM   33  O   UNK N   1      10.561  17.373  20.143  0.00  0.00    -0.273 OA
BRANCH  32  34
HETATM   34  C   UNK N   1       8.738  17.942  18.751  0.00  0.00     0.118 C 
BRANCH  34  35
HETATM   35  C   UNK N   1       8.713  19.470  18.657  0.00  0.00     0.124 C 
HETATM   36 Cl   UNK N   1       7.430  19.990  17.537  0.00  0.00    -0.130 Cl
ENDBRANCH  34  35
ENDBRANCH  32  34
ENDBRANCH   1  26
BRANCH  11  37
HETATM   37  N   UNK N   1      17.834  13.159  19.623  0.00  0.00    -0.385 N 
HETATM   38  H   UNK N   1      18.392  12.835  20.423  0.00  0.00     0.157 HD
HETATM   39  H   UNK N   1      18.215  13.035  18.674  0.00  0.00     0.157 HD
ENDBRANCH  11  37
TORSDOF 7
ENDMDL
