MODEL 1
REMARK VINA RESULT:      -8.1      0.000      0.000
REMARK  2 active torsions:
REMARK  status: ('A' for Active; 'I' for Inactive)
REMARK    1  A    between atoms: N_1  and  C_8 
REMARK    2  A    between atoms: C_8  and  C_10 
ROOT
HETATM    1  N   UNK N   1      22.030  11.477  13.239  0.00  0.00    -0.191 NA
HETATM    2  C   UNK N   1      18.812  12.490  17.427  0.00  0.00    -0.030 A 
HETATM    3  C   UNK N   1      20.175  12.773  17.511  0.00  0.00     0.010 A 
HETATM    4  C   UNK N   1      18.283  11.945  16.257  0.00  0.00     0.010 A 
HETATM    5  C   UNK N   1      21.010  12.510  16.425  0.00  0.00     0.023 A 
HETATM    6  C   UNK N   1      19.118  11.683  15.171  0.00  0.00     0.023 A 
HETATM    7  C   UNK N   1      20.481  11.965  15.254  0.00  0.00     0.044 A 
HETATM    8  C   UNK N   1      21.336  11.696  14.142  0.00  0.00     0.099 C 
ENDROOT
BRANCH   2   9
HETATM    9  C   UNK N   1      17.911  12.774  18.600  0.00  0.00     0.311 C 
BRANCH   9  10
HETATM   10  N   UNK N   1      16.530  12.371  18.336  0.00  0.00     0.096 N 
HETATM   11  C   UNK N   1      15.629  13.532  18.390  0.00  0.00     0.307 C 
HETATM   12  C   UNK N   1      14.179  13.109  18.108  0.00  0.00     0.244 C 
HETATM   13  N   UNK N   1      13.750  12.074  19.055  0.00  0.00     0.091 N 
HETATM   14  C   UNK N   1      13.237  14.307  18.217  0.00  0.00     0.044 C 
HETATM   15  C   UNK N   1      14.651  10.924  19.013  0.00  0.00     0.300 C 
HETATM   16  H   UNK N   1      12.801  11.773  18.833  0.00  0.00     0.316 HD
HETATM   17  C   UNK N   1      16.097  11.341  19.287  0.00  0.00     0.302 C 
ENDBRANCH   9  10
ENDBRANCH   2   9
TORSDOF 2
ENDMDL
MODEL 2
REMARK VINA RESULT:      -7.0      1.808      6.622
REMARK  2 active torsions:
REMARK  status: ('A' for Active; 'I' for Inactive)
REMARK    1  A    between atoms: N_1  and  C_8 
REMARK    2  A    between atoms: C_8  and  C_10 
ROOT
HETATM    1  N   UNK N   1      11.999  15.823  18.415  0.00  0.00    -0.191 NA
HETATM    2  C   UNK N   1      16.381  12.728  18.025  0.00  0.00    -0.030 A 
HETATM    3  C   UNK N   1      15.983  13.221  19.268  0.00  0.00     0.010 A 
HETATM    4  C   UNK N   1      15.642  13.038  16.884  0.00  0.00     0.010 A 
HETATM    5  C   UNK N   1      14.847  14.023  19.369  0.00  0.00     0.023 A 
HETATM    6  C   UNK N   1      14.506  13.840  16.985  0.00  0.00     0.023 A 
HETATM    7  C   UNK N   1      14.108  14.333  18.227  0.00  0.00     0.044 A 
HETATM    8  C   UNK N   1      12.944  15.155  18.330  0.00  0.00     0.099 C 
ENDROOT
BRANCH   2   9
HETATM    9  C   UNK N   1      17.607  11.862  17.917  0.00  0.00     0.311 C 
BRANCH   9  10
HETATM   10  N   UNK N   1      18.504  12.318  16.856  0.00  0.00     0.096 N 
HETATM   11  C   UNK N   1      18.772  11.236  15.898  0.00  0.00     0.307 C 
HETATM   12  C   UNK N   1      19.711  11.717  14.780  0.00  0.00     0.244 C 
HETATM   13  N   UNK N   1      20.963  12.232  15.346  0.00  0.00     0.091 N 
HETATM   14  C   UNK N   1      20.031  10.576  13.816  0.00  0.00     0.044 C 
HETATM   15  C   UNK N   1      20.700  13.300  16.308  0.00  0.00     0.300 C 
HETATM   16  H   UNK N   1      21.561  12.585  14.598  0.00  0.00     0.316 HD
HETATM   17  C   UNK N   1      19.760  12.827  17.419  0.00  0.00     0.302 C 
ENDBRANCH   9  10
ENDBRANCH   2   9
TORSDOF 2
ENDMDL
MODEL 3
REMARK VINA RESULT:      -6.9      1.407      2.007
REMARK  2 active torsions:
REMARK  status: ('A' for Active; 'I' for Inactive)
REMARK    1  A    between atoms: N_1  and  C_8 
REMARK    2  A    between atoms: C_8  and  C_10 
ROOT
HETATM    1  N   UNK N   1      22.887  12.817  14.514  0.00  0.00    -0.191 NA
HETATM    2  C   UNK N   1      17.980  11.657  16.388  0.00  0.00    -0.030 A 
HETATM    3  C   UNK N   1      18.910  12.290  17.213  0.00  0.00     0.010 A 
HETATM    4  C   UNK N   1      18.322  11.326  15.077  0.00  0.00     0.010 A 
HETATM    5  C   UNK N   1      20.183  12.590  16.727  0.00  0.00     0.023 A 
HETATM    6  C   UNK N   1      19.594  11.627  14.591  0.00  0.00     0.023 A 
HETATM    7  C   UNK N   1      20.525  12.259  15.416  0.00  0.00     0.044 A 
HETATM    8  C   UNK N   1      21.828  12.567  14.918  0.00  0.00     0.099 C 
ENDROOT
BRANCH   2   9
HETATM    9  C   UNK N   1      16.607  11.332  16.913  0.00  0.00     0.311 C 
BRANCH   9  10
HETATM   10  N   UNK N   1      16.038  12.444  17.673  0.00  0.00     0.096 N 
HETATM   11  C   UNK N   1      15.117  11.950  18.708  0.00  0.00     0.307 C 
HETATM   12  C   UNK N   1      14.523  13.119  19.511  0.00  0.00     0.244 C 
HETATM   13  N   UNK N   1      13.843  14.064  18.618  0.00  0.00     0.091 N 
HETATM   14  C   UNK N   1      13.526  12.608  20.549  0.00  0.00     0.044 C 
HETATM   15  C   UNK N   1      14.752  14.547  17.580  0.00  0.00     0.300 C 
HETATM   16  H   UNK N   1      13.488  14.854  19.157  0.00  0.00     0.316 HD
HETATM   17  C   UNK N   1      15.351  13.387  16.783  0.00  0.00     0.302 C 
ENDBRANCH   9  10
ENDBRANCH   2   9
TORSDOF 2
ENDMDL
MODEL 4
REMARK VINA RESULT:      -6.2      4.745      8.628
REMARK  2 active torsions:
REMARK  status: ('A' for Active; 'I' for Inactive)
REMARK    1  A    between atoms: N_1  and  C_8 
REMARK    2  A    between atoms: C_8  and  C_10 
ROOT
HETATM    1  N   UNK N   1       8.026  19.334  18.006  0.00  0.00    -0.191 NA
HETATM    2  C   UNK N   1      12.170  15.959  17.395  0.00  0.00    -0.030 A 
HETATM    3  C   UNK N   1      11.593  16.564  16.278  0.00  0.00     0.010 A 
HETATM    4  C   UNK N   1      11.673  16.230  18.670  0.00  0.00     0.010 A 
HETATM    5  C   UNK N   1      10.518  17.439  16.437  0.00  0.00     0.023 A 
HETATM    6  C   UNK N   1      10.599  17.105  18.828  0.00  0.00     0.023 A 
HETATM    7  C   UNK N   1      10.021  17.710  17.712  0.00  0.00     0.044 A 
HETATM    8  C   UNK N   1       8.920  18.606  17.874  0.00  0.00     0.099 C 
ENDROOT
BRANCH   2   9
HETATM    9  C   UNK N   1      13.330  15.015  17.224  0.00  0.00     0.311 C 
BRANCH   9  10
HETATM   10  N   UNK N   1      13.671  14.338  18.475  0.00  0.00     0.096 N 
HETATM   11  C   UNK N   1      15.091  14.533  18.802  0.00  0.00     0.307 C 
HETATM   12  C   UNK N   1      15.448  13.826  20.120  0.00  0.00     0.244 C 
HETATM   13  N   UNK N   1      15.124  12.397  20.042  0.00  0.00     0.091 N 
HETATM   14  C   UNK N   1      16.935  13.983  20.430  0.00  0.00     0.044 C 
HETATM   15  C   UNK N   1      13.715  12.200  19.704  0.00  0.00     0.300 C 
HETATM   16  H   UNK N   1      15.327  11.947  20.934  0.00  0.00     0.316 HD
HETATM   17  C   UNK N   1      13.354  12.908  18.397  0.00  0.00     0.302 C 
ENDBRANCH   9  10
ENDBRANCH   2   9
TORSDOF 2
ENDMDL
MODEL 5
REMARK VINA RESULT:      -6.0      6.526     10.232
REMARK  2 active torsions:
REMARK  status: ('A' for Active; 'I' for Inactive)
REMARK    1  A    between atoms: N_1  and  C_8 
REMARK    2  A    between atoms: C_8  and  C_10 
ROOT
HETATM    1  N   UNK N   1      14.545  14.516  17.437  0.00  0.00    -0.191 NA
HETATM    2  C   UNK N   1       9.898  17.184  17.904  0.00  0.00    -0.030 A 
HETATM    3  C   UNK N   1      10.627  16.847  19.045  0.00  0.00     0.010 A 
HETATM    4  C   UNK N   1      10.375  16.829  16.642  0.00  0.00     0.010 A 
HETATM    5  C   UNK N   1      11.832  16.155  18.924  0.00  0.00     0.023 A 
HETATM    6  C   UNK N   1      11.580  16.138  16.521  0.00  0.00     0.023 A 
HETATM    7  C   UNK N   1      12.309  15.801  17.662  0.00  0.00     0.044 A 
HETATM    8  C   UNK N   1      13.543  15.092  17.538  0.00  0.00     0.099 C 
ENDROOT
BRANCH   2   9
HETATM    9  C   UNK N   1       8.597  17.931  18.035  0.00  0.00     0.311 C 
BRANCH   9  10
HETATM   10  N   UNK N   1       8.806  19.375  18.125  0.00  0.00     0.096 N 
HETATM   11  C   UNK N   1       8.591  19.849  19.500  0.00  0.00     0.307 C 
HETATM   12  C   UNK N   1       8.814  21.367  19.595  0.00  0.00     0.244 C 
HETATM   13  N   UNK N   1       7.936  22.076  18.658  0.00  0.00     0.091 N 
HETATM   14  C   UNK N   1       8.538  21.865  21.012  0.00  0.00     0.044 C 
HETATM   15  C   UNK N   1       8.138  21.599  17.291  0.00  0.00     0.300 C 
HETATM   16  H   UNK N   1       8.122  23.078  18.701  0.00  0.00     0.316 HD
HETATM   17  C   UNK N   1       7.923  20.087  17.194  0.00  0.00     0.302 C 
ENDBRANCH   9  10
ENDBRANCH   2   9
TORSDOF 2
ENDMDL
MODEL 6
REMARK VINA RESULT:      -5.9      1.632      1.961
REMARK  2 active torsions:
REMARK  status: ('A' for Active; 'I' for Inactive)
REMARK    1  A    between atoms: N_1  and  C_8 
REMARK    2  A    between atoms: C_8  and  C_10 
ROOT
HETATM    1  N   UNK N   1      23.240  11.728  14.965  0.00  0.00    -0.191 NA
HETATM    2  C   UNK N   1      17.929  12.222  15.658  0.00  0.00    -0.030 A 
HETATM    3  C   UNK N   1      18.808  12.963  16.449  0.00  0.00     0.010 A 
HETATM    4  C   UNK N   1      18.428  11.354  14.687  0.00  0.00     0.010 A 
HETATM    5  C   UNK N   1      20.185  12.834  16.269  0.00  0.00     0.023 A 
HETATM    6  C   UNK N   1      19.805  11.226  14.507  0.00  0.00     0.023 A 
HETATM    7  C   UNK N   1      20.684  11.966  15.298  0.00  0.00     0.044 A 
HETATM    8  C   UNK N   1      22.095  11.835  15.114  0.00  0.00     0.099 C 
ENDROOT
BRANCH   2   9
HETATM    9  C   UNK N   1      16.443  12.361  15.852  0.00  0.00     0.311 C 
BRANCH   9  10
HETATM   10  N   UNK N   1      16.049  12.110  17.238  0.00  0.00     0.096 N 
HETATM   11  C   UNK N   1      16.204  13.325  18.052  0.00  0.00     0.307 C 
HETATM   12  C   UNK N   1      15.785  13.062  19.508  0.00  0.00     0.244 C 
HETATM   13  N   UNK N   1      16.561  11.953  20.075  0.00  0.00     0.091 N 
HETATM   14  C   UNK N   1      15.997  14.309  20.364  0.00  0.00     0.044 C 
HETATM   15  C   UNK N   1      16.419  10.748  19.261  0.00  0.00     0.300 C 
HETATM   16  H   UNK N   1      16.246  11.763  21.026  0.00  0.00     0.316 HD
HETATM   17  C   UNK N   1      16.829  11.007  17.810  0.00  0.00     0.302 C 
ENDBRANCH   9  10
ENDBRANCH   2   9
TORSDOF 2
ENDMDL
MODEL 7
REMARK VINA RESULT:      -5.7      3.887      6.716
REMARK  2 active torsions:
REMARK  status: ('A' for Active; 'I' for Inactive)
REMARK    1  A    between atoms: N_1  and  C_8 
REMARK    2  A    between atoms: C_8  and  C_10 
ROOT
HETATM    1  N   UNK N   1      16.997  11.282  17.369  0.00  0.00    -0.191 NA
HETATM    2  C   UNK N   1      13.116  14.946  18.030  0.00  0.00    -0.030 A 
HETATM    3  C   UNK N   1      13.189  13.845  18.885  0.00  0.00     0.010 A 
HETATM    4  C   UNK N   1      14.050  15.096  17.005  0.00  0.00     0.010 A 
HETATM    5  C   UNK N   1      14.196  12.895  18.713  0.00  0.00     0.023 A 
HETATM    6  C   UNK N   1      15.056  14.146  16.834  0.00  0.00     0.023 A 
HETATM    7  C   UNK N   1      15.129  13.046  17.687  0.00  0.00     0.044 A 
HETATM    8  C   UNK N   1      16.160  12.072  17.511  0.00  0.00     0.099 C 
ENDROOT
BRANCH   2   9
HETATM    9  C   UNK N   1      12.030  15.972  18.216  0.00  0.00     0.311 C 
BRANCH   9  10
HETATM   10  N   UNK N   1      11.596  16.542  16.942  0.00  0.00     0.096 N 
HETATM   11  C   UNK N   1      10.963  17.854  17.146  0.00  0.00     0.307 C 
HETATM   12  C   UNK N   1      10.511  18.455  15.805  0.00  0.00     0.244 C 
HETATM   13  N   UNK N   1       9.599  17.540  15.111  0.00  0.00     0.091 N 
HETATM   14  C   UNK N   1       9.805  19.792  16.025  0.00  0.00     0.044 C 
HETATM   15  C   UNK N   1      10.220  16.231  14.917  0.00  0.00     0.300 C 
HETATM   16  H   UNK N   1       9.338  17.932  14.206  0.00  0.00     0.316 HD
HETATM   17  C   UNK N   1      10.677  15.632  16.248  0.00  0.00     0.302 C 
ENDBRANCH   9  10
ENDBRANCH   2   9
TORSDOF 2
ENDMDL
MODEL 8
REMARK VINA RESULT:      -5.6      9.561     11.951
REMARK  2 active torsions:
REMARK  status: ('A' for Active; 'I' for Inactive)
REMARK    1  A    between atoms: N_1  and  C_8 
REMARK    2  A    between atoms: C_8  and  C_10 
ROOT
HETATM    1  N   UNK N   1      10.895  16.596  14.504  0.00  0.00    -0.191 NA
HETATM    2  C   UNK N   1       8.507  19.686  18.203  0.00  0.00    -0.030 A 
HETATM    3  C   UNK N   1       8.843  18.366  18.508  0.00  0.00     0.010 A 
HETATM    4  C   UNK N   1       8.791  20.204  16.940  0.00  0.00     0.010 A 
HETATM    5  C   UNK N   1       9.462  17.565  17.548  0.00  0.00     0.023 A 
HETATM    6  C   UNK N   1       9.411  19.403  15.981  0.00  0.00     0.023 A 
HETATM    7  C   UNK N   1       9.746  18.084  16.284  0.00  0.00     0.044 A 
HETATM    8  C   UNK N   1      10.380  17.263  15.302  0.00  0.00     0.099 C 
ENDROOT
BRANCH   2   9
HETATM    9  C   UNK N   1       7.839  20.550  19.239  0.00  0.00     0.311 C 
BRANCH   9  10
HETATM   10  N   UNK N   1       8.471  20.416  20.551  0.00  0.00     0.096 N 
HETATM   11  C   UNK N   1       7.587  19.701  21.484  0.00  0.00     0.307 C 
HETATM   12  C   UNK N   1       8.254  19.556  22.862  0.00  0.00     0.244 C 
HETATM   13  N   UNK N   1       8.622  20.871  23.398  0.00  0.00     0.091 N 
HETATM   14  C   UNK N   1       7.313  18.862  23.845  0.00  0.00     0.044 C 
HETATM   15  C   UNK N   1       9.490  21.590  22.466  0.00  0.00     0.300 C 
HETATM   16  H   UNK N   1       9.099  20.759  24.292  0.00  0.00     0.316 HD
HETATM   17  C   UNK N   1       8.833  21.731  21.092  0.00  0.00     0.302 C 
ENDBRANCH   9  10
ENDBRANCH   2   9
TORSDOF 2
ENDMDL
MODEL 9
REMARK VINA RESULT:      -5.3      9.098     11.789
REMARK  2 active torsions:
REMARK  status: ('A' for Active; 'I' for Inactive)
REMARK    1  A    between atoms: N_1  and  C_8 
REMARK    2  A    between atoms: C_8  and  C_10 
ROOT
HETATM    1  N   UNK N   1      10.127  16.202  14.974  0.00  0.00    -0.191 NA
HETATM    2  C   UNK N   1       9.751  18.376  19.880  0.00  0.00    -0.030 A 
HETATM    3  C   UNK N   1      10.597  17.288  19.662  0.00  0.00     0.010 A 
HETATM    4  C   UNK N   1       9.004  18.900  18.825  0.00  0.00     0.010 A 
HETATM    5  C   UNK N   1      10.694  16.725  18.390  0.00  0.00     0.023 A 
HETATM    6  C   UNK N   1       9.102  18.337  17.554  0.00  0.00     0.023 A 
HETATM    7  C   UNK N   1       9.946  17.249  17.335  0.00  0.00     0.044 A 
HETATM    8  C   UNK N   1      10.046  16.672  16.032  0.00  0.00     0.099 C 
ENDROOT
BRANCH   2   9
HETATM    9  C   UNK N   1       9.647  18.985  21.253  0.00  0.00     0.311 C 
BRANCH   9  10
HETATM   10  N   UNK N   1       8.546  19.943  21.341  0.00  0.00     0.096 N 
HETATM   11  C   UNK N   1       9.050  21.290  21.648  0.00  0.00     0.307 C 
HETATM   12  C   UNK N   1       7.892  22.297  21.736  0.00  0.00     0.244 C 
HETATM   13  N   UNK N   1       6.912  21.869  22.740  0.00  0.00     0.091 N 
HETATM   14  C   UNK N   1       8.413  23.685  22.108  0.00  0.00     0.044 C 
HETATM   15  C   UNK N   1       6.417  20.525  22.445  0.00  0.00     0.300 C 
HETATM   16  H   UNK N   1       6.130  22.524  22.760  0.00  0.00     0.316 HD
HETATM   17  C   UNK N   1       7.567  19.520  22.350  0.00  0.00     0.302 C 
ENDBRANCH   9  10
ENDBRANCH   2   9
TORSDOF 2
ENDMDL
