MODEL 1
REMARK VINA RESULT:      -9.4      0.000      0.000
REMARK  6 active torsions:
REMARK  status: ('A' for Active; 'I' for Inactive)
REMARK    1  A    between atoms: N_2  and  C_16 
REMARK       I    between atoms: N_4  and  C_24 
REMARK    2  A    between atoms: N_4  and  C_25 
REMARK    3  A    between atoms: N_5  and  C_27 
REMARK       I    between atoms: N_5  and  C_32 
REMARK    4  A    between atoms: C_16  and  C_18 
REMARK    5  A    between atoms: C_23  and  C_24 
REMARK    6  A    between atoms: C_33  and  C_34 
ROOT
HETATM    1  C   UNK N   1      10.487  18.133  18.466  0.00  0.00     0.043 A 
HETATM    2  C   UNK N   1       9.761  18.484  19.654  0.00  0.00    -0.008 A 
HETATM    3  C   UNK N   1       8.761  19.509  19.613  0.00  0.00     0.057 A 
HETATM    4  C   UNK N   1      10.193  18.827  17.270  0.00  0.00     0.030 A 
HETATM    5  C   UNK N   1      10.117  17.787  20.964  0.00  0.00     0.053 C 
HETATM    6  C   UNK N   1       8.517  20.166  18.394  0.00  0.00     0.030 A 
HETATM    7  C   UNK N   1       9.225  19.826  17.247  0.00  0.00     0.005 A 
ENDROOT
BRANCH   1   8
HETATM    8  N   UNK N   1      11.487  17.085  18.537  0.00  0.00    -0.322 N 
HETATM    9  C   UNK N   1      11.823  16.151  17.585  0.00  0.00     0.256 C 
HETATM   10  O   UNK N   1      11.277  16.151  16.494  0.00  0.00    -0.267 OA
HETATM   11  H   UNK N   1      12.030  17.056  19.393  0.00  0.00     0.169 HD
BRANCH   9  12
HETATM   12  C   UNK N   1      12.917  15.139  17.841  0.00  0.00     0.032 A 
HETATM   13  C   UNK N   1      12.903  14.273  18.964  0.00  0.00     0.017 A 
HETATM   14  C   UNK N   1      13.946  13.380  19.189  0.00  0.00     0.010 A 
HETATM   15  C   UNK N   1      15.027  13.311  18.310  0.00  0.00    -0.030 A 
HETATM   16  C   UNK N   1      15.051  14.141  17.180  0.00  0.00     0.010 A 
HETATM   17  C   UNK N   1      14.006  15.047  16.948  0.00  0.00     0.017 A 
BRANCH  15  18
HETATM   18  C   UNK N   1      16.151  12.353  18.606  0.00  0.00     0.311 C 
BRANCH  18  19
HETATM   19  N   UNK N   1      17.337  12.720  17.803  0.00  0.00     0.096 N 
HETATM   20  C   UNK N   1      17.513  11.774  16.678  0.00  0.00     0.303 C 
HETATM   21  C   UNK N   1      18.730  12.164  15.837  0.00  0.00     0.302 C 
HETATM   22  N   UNK N   1      19.934  12.177  16.688  0.00  0.00     0.087 N 
HETATM   23  C   UNK N   1      19.764  13.151  17.781  0.00  0.00     0.302 C 
HETATM   24  C   UNK N   1      21.125  12.491  15.887  0.00  0.00     0.310 C 
HETATM   25  C   UNK N   1      18.553  12.758  18.637  0.00  0.00     0.303 C 
ENDBRANCH  18  19
ENDBRANCH  15  18
ENDBRANCH   9  12
ENDBRANCH   1   8
BRANCH   3  26
HETATM   26  N   UNK N   1       8.003  19.833  20.793  0.00  0.00    -0.191 N 
HETATM   27  C   UNK N   1       8.463  20.576  21.920  0.00  0.00     0.683 A 
HETATM   28  N   UNK N   1       9.692  21.163  21.945  0.00  0.00    -0.191 N 
HETATM   29  N   UNK N   1       7.691  20.592  23.040  0.00  0.00    -0.202 N 
HETATM   30  C   UNK N   1      10.175  21.750  23.079  0.00  0.00     0.062 A 
ATOM     31  HN  UNK N   1      10.263  21.164  21.100  1.00  0.00     0.184 HD
HETATM   32  C   UNK N   1       9.385  21.742  24.239  0.00  0.00     0.048 A 
HETATM   33  C   UNK N   1       8.124  21.164  24.188  0.00  0.00     0.108 A 
ATOM     34  HN  UNK N   1       6.766  20.163  23.014  1.00  0.00     0.183 HD
HETATM   35  H   UNK N   1       7.080  19.403  20.915  0.00  0.00     0.184 HD
BRANCH  30  36
HETATM   36  C   UNK N   1      11.519  22.386  23.066  0.00  0.00     0.007 A 
HETATM   37  C   UNK N   1      11.686  23.669  22.518  0.00  0.00     0.016 A 
HETATM   38  C   UNK N   1      12.945  24.273  22.527  0.00  0.00     0.018 A 
HETATM   39  C   UNK N   1      14.034  23.584  23.061  0.00  0.00     0.087 A 
HETATM   40  N   UNK N   1      13.866  22.339  23.577  0.00  0.00    -0.374 N 
HETATM   41  C   UNK N   1      12.648  21.734  23.600  0.00  0.00     0.101 A 
ATOM     42  HN  UNK N   1      14.673  21.846  23.955  1.00  0.00     0.164 HD
ENDBRANCH  30  36
ENDBRANCH   3  26
TORSDOF 6
ENDMDL
MODEL 2
REMARK VINA RESULT:      -8.0      1.085      1.573
REMARK  6 active torsions:
REMARK  status: ('A' for Active; 'I' for Inactive)
REMARK    1  A    between atoms: N_2  and  C_16 
REMARK       I    between atoms: N_4  and  C_24 
REMARK    2  A    between atoms: N_4  and  C_25 
REMARK    3  A    between atoms: N_5  and  C_27 
REMARK       I    between atoms: N_5  and  C_32 
REMARK    4  A    between atoms: C_16  and  C_18 
REMARK    5  A    between atoms: C_23  and  C_24 
REMARK    6  A    between atoms: C_33  and  C_34 
ROOT
HETATM    1  C   UNK N   1      10.724  17.558  18.140  0.00  0.00     0.043 A 
HETATM    2  C   UNK N   1       9.770  17.951  19.139  0.00  0.00    -0.008 A 
HETATM    3  C   UNK N   1       8.893  19.059  18.904  0.00  0.00     0.057 A 
HETATM    4  C   UNK N   1      10.775  18.295  16.935  0.00  0.00     0.030 A 
HETATM    5  C   UNK N   1       9.752  17.203  20.469  0.00  0.00     0.053 C 
HETATM    6  C   UNK N   1       8.996  19.755  17.687  0.00  0.00     0.030 A 
HETATM    7  C   UNK N   1       9.923  19.375  16.724  0.00  0.00     0.005 A 
ENDROOT
BRANCH   1   8
HETATM    8  N   UNK N   1      11.592  16.426  18.402  0.00  0.00    -0.322 N 
HETATM    9  C   UNK N   1      12.493  15.820  17.559  0.00  0.00     0.256 C 
HETATM   10  O   UNK N   1      12.672  16.246  16.430  0.00  0.00    -0.267 OA
HETATM   11  H   UNK N   1      11.548  16.051  19.344  0.00  0.00     0.169 HD
BRANCH   9  12
HETATM   12  C   UNK N   1      13.329  14.650  18.027  0.00  0.00     0.032 A 
HETATM   13  C   UNK N   1      13.647  14.440  19.393  0.00  0.00     0.017 A 
HETATM   14  C   UNK N   1      14.450  13.373  19.784  0.00  0.00     0.010 A 
HETATM   15  C   UNK N   1      14.955  12.479  18.839  0.00  0.00    -0.030 A 
HETATM   16  C   UNK N   1      14.633  12.652  17.486  0.00  0.00     0.010 A 
HETATM   17  C   UNK N   1      13.829  13.727  17.082  0.00  0.00     0.017 A 
BRANCH  15  18
HETATM   18  C   UNK N   1      15.845  11.355  19.299  0.00  0.00     0.311 C 
BRANCH  18  19
HETATM   19  N   UNK N   1      17.209  11.557  18.765  0.00  0.00     0.096 N 
HETATM   20  C   UNK N   1      17.724  12.890  19.150  0.00  0.00     0.303 C 
HETATM   21  C   UNK N   1      19.142  13.092  18.613  0.00  0.00     0.302 C 
HETATM   22  N   UNK N   1      19.139  12.949  17.145  0.00  0.00     0.087 N 
HETATM   23  C   UNK N   1      18.663  11.605  16.774  0.00  0.00     0.302 C 
HETATM   24  C   UNK N   1      20.481  13.198  16.602  0.00  0.00     0.310 C 
HETATM   25  C   UNK N   1      17.235  11.401  17.298  0.00  0.00     0.303 C 
ENDBRANCH  18  19
ENDBRANCH  15  18
ENDBRANCH   9  12
ENDBRANCH   1   8
BRANCH   3  26
HETATM   26  N   UNK N   1       7.908  19.428  19.886  0.00  0.00    -0.191 N 
HETATM   27  C   UNK N   1       8.158  20.037  21.151  0.00  0.00     0.683 A 
HETATM   28  N   UNK N   1       9.404  20.439  21.527  0.00  0.00    -0.191 N 
HETATM   29  N   UNK N   1       7.136  20.106  22.046  0.00  0.00    -0.202 N 
HETATM   30  C   UNK N   1       9.654  20.890  22.790  0.00  0.00     0.062 A 
ATOM     31  HN  UNK N   1      10.167  20.401  20.850  1.00  0.00     0.184 HD
HETATM   32  C   UNK N   1       8.602  20.936  23.718  0.00  0.00     0.048 A 
HETATM   33  C   UNK N   1       7.332  20.549  23.311  0.00  0.00     0.108 A 
ATOM     34  HN  UNK N   1       6.201  19.817  21.758  1.00  0.00     0.183 HD
HETATM   35  H   UNK N   1       6.938  19.130  19.742  0.00  0.00     0.184 HD
BRANCH  30  36
HETATM   36  C   UNK N   1      11.027  21.326  23.160  0.00  0.00     0.007 A 
HETATM   37  C   UNK N   1      11.990  20.376  23.540  0.00  0.00     0.016 A 
HETATM   38  C   UNK N   1      13.284  20.786  23.866  0.00  0.00     0.018 A 
HETATM   39  C   UNK N   1      13.604  22.143  23.834  0.00  0.00     0.087 A 
HETATM   40  N   UNK N   1      12.663  23.056  23.478  0.00  0.00    -0.374 N 
HETATM   41  C   UNK N   1      11.401  22.684  23.137  0.00  0.00     0.101 A 
ATOM     42  HN  UNK N   1      12.910  24.045  23.468  1.00  0.00     0.164 HD
ENDBRANCH  30  36
ENDBRANCH   3  26
TORSDOF 6
ENDMDL
MODEL 3
REMARK VINA RESULT:      -7.1      1.547      2.017
REMARK  6 active torsions:
REMARK  status: ('A' for Active; 'I' for Inactive)
REMARK    1  A    between atoms: N_2  and  C_16 
REMARK       I    between atoms: N_4  and  C_24 
REMARK    2  A    between atoms: N_4  and  C_25 
REMARK    3  A    between atoms: N_5  and  C_27 
REMARK       I    between atoms: N_5  and  C_32 
REMARK    4  A    between atoms: C_16  and  C_18 
REMARK    5  A    between atoms: C_23  and  C_24 
REMARK    6  A    between atoms: C_33  and  C_34 
ROOT
HETATM    1  C   UNK N   1       9.325  19.117  17.715  0.00  0.00     0.043 A 
HETATM    2  C   UNK N   1       8.501  19.649  18.764  0.00  0.00    -0.008 A 
HETATM    3  C   UNK N   1       7.700  20.814  18.534  0.00  0.00     0.057 A 
HETATM    4  C   UNK N   1       9.327  19.777  16.465  0.00  0.00     0.030 A 
HETATM    5  C   UNK N   1       8.542  18.983  20.137  0.00  0.00     0.053 C 
HETATM    6  C   UNK N   1       7.748  21.427  17.270  0.00  0.00     0.030 A 
HETATM    7  C   UNK N   1       8.551  20.913  16.257  0.00  0.00     0.005 A 
ENDROOT
BRANCH   1   8
HETATM    8  N   UNK N   1      10.118  17.931  17.975  0.00  0.00    -0.322 N 
HETATM    9  C   UNK N   1      11.082  17.351  17.185  0.00  0.00     0.256 C 
HETATM   10  O   UNK N   1      11.398  17.853  16.120  0.00  0.00    -0.267 OA
HETATM   11  H   UNK N   1       9.958  17.488  18.873  0.00  0.00     0.169 HD
BRANCH   9  12
HETATM   12  C   UNK N   1      11.819  16.112  17.643  0.00  0.00     0.032 A 
HETATM   13  C   UNK N   1      12.335  15.976  18.957  0.00  0.00     0.017 A 
HETATM   14  C   UNK N   1      13.041  14.837  19.332  0.00  0.00     0.010 A 
HETATM   15  C   UNK N   1      13.251  13.798  18.424  0.00  0.00    -0.030 A 
HETATM   16  C   UNK N   1      12.729  13.900  17.127  0.00  0.00     0.010 A 
HETATM   17  C   UNK N   1      12.021  15.047  16.739  0.00  0.00     0.017 A 
BRANCH  15  18
HETATM   18  C   UNK N   1      14.046  12.596  18.860  0.00  0.00     0.311 C 
BRANCH  18  19
HETATM   19  N   UNK N   1      15.000  12.223  17.794  0.00  0.00     0.096 N 
HETATM   20  C   UNK N   1      16.164  11.510  18.368  0.00  0.00     0.303 C 
HETATM   21  C   UNK N   1      17.142  11.108  17.262  0.00  0.00     0.302 C 
HETATM   22  N   UNK N   1      17.587  12.311  16.536  0.00  0.00     0.087 N 
HETATM   23  C   UNK N   1      16.426  12.991  15.935  0.00  0.00     0.302 C 
HETATM   24  C   UNK N   1      18.574  11.955  15.507  0.00  0.00     0.310 C 
HETATM   25  C   UNK N   1      15.446  13.409  17.039  0.00  0.00     0.303 C 
ENDBRANCH  18  19
ENDBRANCH  15  18
ENDBRANCH   9  12
ENDBRANCH   1   8
BRANCH   3  26
HETATM   26  N   UNK N   1       6.842  21.323  19.571  0.00  0.00    -0.191 N 
HETATM   27  C   UNK N   1       7.252  21.835  20.837  0.00  0.00     0.683 A 
HETATM   28  N   UNK N   1       8.566  21.991  21.162  0.00  0.00    -0.191 N 
HETATM   29  N   UNK N   1       6.299  22.059  21.781  0.00  0.00    -0.202 N 
HETATM   30  C   UNK N   1       8.948  22.347  22.423  0.00  0.00     0.062 A 
ATOM     31  HN  UNK N   1       9.279  21.837  20.450  1.00  0.00     0.184 HD
HETATM   32  C   UNK N   1       7.962  22.553  23.401  0.00  0.00     0.048 A 
HETATM   33  C   UNK N   1       6.627  22.417  23.045  0.00  0.00     0.108 A 
ATOM     34  HN  UNK N   1       5.316  21.955  21.531  1.00  0.00     0.183 HD
HETATM   35  H   UNK N   1       5.828  21.212  19.466  0.00  0.00     0.184 HD
BRANCH  30  36
HETATM   36  C   UNK N   1      10.392  22.513  22.738  0.00  0.00     0.007 A 
HETATM   37  C   UNK N   1      10.997  23.776  22.627  0.00  0.00     0.016 A 
HETATM   38  C   UNK N   1      12.348  23.933  22.944  0.00  0.00     0.018 A 
HETATM   39  C   UNK N   1      13.092  22.825  23.348  0.00  0.00     0.087 A 
HETATM   40  N   UNK N   1      12.502  21.605  23.441  0.00  0.00    -0.374 N 
HETATM   41  C   UNK N   1      11.185  21.426  23.157  0.00  0.00     0.101 A 
ATOM     42  HN  UNK N   1      13.062  20.804  23.729  1.00  0.00     0.164 HD
ENDBRANCH  30  36
ENDBRANCH   3  26
TORSDOF 6
ENDMDL
MODEL 4
REMARK VINA RESULT:      -6.6      2.477     12.000
REMARK  6 active torsions:
REMARK  status: ('A' for Active; 'I' for Inactive)
REMARK    1  A    between atoms: N_2  and  C_16 
REMARK       I    between atoms: N_4  and  C_24 
REMARK    2  A    between atoms: N_4  and  C_25 
REMARK    3  A    between atoms: N_5  and  C_27 
REMARK       I    between atoms: N_5  and  C_32 
REMARK    4  A    between atoms: C_16  and  C_18 
REMARK    5  A    between atoms: C_23  and  C_24 
REMARK    6  A    between atoms: C_33  and  C_34 
ROOT
HETATM    1  C   UNK N   1      13.468  13.551  19.186  0.00  0.00     0.043 A 
HETATM    2  C   UNK N   1      14.835  13.889  19.467  0.00  0.00    -0.008 A 
HETATM    3  C   UNK N   1      15.823  12.859  19.591  0.00  0.00     0.057 A 
HETATM    4  C   UNK N   1      13.131  12.186  19.045  0.00  0.00     0.030 A 
HETATM    5  C   UNK N   1      15.198  15.355  19.686  0.00  0.00     0.053 C 
HETATM    6  C   UNK N   1      15.424  11.520  19.445  0.00  0.00     0.030 A 
HETATM    7  C   UNK N   1      14.099  11.195  19.177  0.00  0.00     0.005 A 
ENDROOT
BRANCH   1   8
HETATM    8  N   UNK N   1      12.492  14.616  19.057  0.00  0.00    -0.322 N 
HETATM    9  C   UNK N   1      12.385  15.568  18.070  0.00  0.00     0.256 C 
HETATM   10  O   UNK N   1      13.153  15.572  17.123  0.00  0.00    -0.267 OA
HETATM   11  H   UNK N   1      11.777  14.643  19.776  0.00  0.00     0.169 HD
BRANCH   9  12
HETATM   12  C   UNK N   1      11.276  16.596  18.101  0.00  0.00     0.032 A 
HETATM   13  C   UNK N   1      10.793  17.229  16.927  0.00  0.00     0.017 A 
HETATM   14  C   UNK N   1       9.798  18.199  16.997  0.00  0.00     0.010 A 
HETATM   15  C   UNK N   1       9.246  18.566  18.225  0.00  0.00    -0.030 A 
HETATM   16  C   UNK N   1       9.691  17.937  19.396  0.00  0.00     0.010 A 
HETATM   17  C   UNK N   1      10.697  16.961  19.336  0.00  0.00     0.017 A 
BRANCH  15  18
HETATM   18  C   UNK N   1       8.194  19.642  18.261  0.00  0.00     0.311 C 
BRANCH  18  19
HETATM   19  N   UNK N   1       8.162  20.256  19.606  0.00  0.00     0.096 N 
HETATM   20  C   UNK N   1       6.770  20.587  19.990  0.00  0.00     0.303 C 
HETATM   21  C   UNK N   1       6.735  21.206  21.388  0.00  0.00     0.302 C 
HETATM   22  N   UNK N   1       7.575  22.417  21.414  0.00  0.00     0.087 N 
HETATM   23  C   UNK N   1       8.965  22.070  21.069  0.00  0.00     0.302 C 
HETATM   24  C   UNK N   1       7.508  23.062  22.732  0.00  0.00     0.310 C 
HETATM   25  C   UNK N   1       9.010  21.461  19.662  0.00  0.00     0.303 C 
ENDBRANCH  18  19
ENDBRANCH  15  18
ENDBRANCH   9  12
ENDBRANCH   1   8
BRANCH   3  26
HETATM   26  N   UNK N   1      17.201  13.199  19.831  0.00  0.00    -0.191 N 
HETATM   27  C   UNK N   1      18.289  13.025  18.924  0.00  0.00     0.683 A 
HETATM   28  N   UNK N   1      18.102  12.591  17.646  0.00  0.00    -0.191 N 
HETATM   29  N   UNK N   1      19.554  13.185  19.398  0.00  0.00    -0.202 N 
HETATM   30  C   UNK N   1      19.159  12.294  16.836  0.00  0.00     0.062 A 
ATOM     31  HN  UNK N   1      17.153  12.485  17.288  1.00  0.00     0.184 HD
HETATM   32  C   UNK N   1      20.463  12.438  17.337  0.00  0.00     0.048 A 
HETATM   33  C   UNK N   1      20.636  12.907  18.632  0.00  0.00     0.108 A 
ATOM     34  HN  UNK N   1      19.690  13.523  20.350  1.00  0.00     0.183 HD
HETATM   35  H   UNK N   1      17.477  13.486  20.775  0.00  0.00     0.184 HD
BRANCH  30  36
HETATM   36  C   UNK N   1      18.916  11.830  15.445  0.00  0.00     0.007 A 
HETATM   37  C   UNK N   1      19.998  11.570  14.588  0.00  0.00     0.016 A 
HETATM   38  C   UNK N   1      19.766  11.113  13.289  0.00  0.00     0.018 A 
HETATM   39  C   UNK N   1      18.456  10.940  12.845  0.00  0.00     0.087 A 
HETATM   40  N   UNK N   1      17.415  11.206  13.676  0.00  0.00    -0.374 N 
HETATM   41  C   UNK N   1      17.610  11.633  14.951  0.00  0.00     0.101 A 
ATOM     42  HN  UNK N   1      16.463  11.083  13.333  1.00  0.00     0.164 HD
ENDBRANCH  30  36
ENDBRANCH   3  26
TORSDOF 6
ENDMDL
