MODEL 1
REMARK VINA RESULT:     -10.0      0.000      0.000
REMARK  6 active torsions:
REMARK  status: ('A' for Active; 'I' for Inactive)
REMARK    1  A    between atoms: N_2  and  C_16 
REMARK       I    between atoms: N_4  and  C_24 
REMARK    2  A    between atoms: N_4  and  C_25 
REMARK    3  A    between atoms: N_5  and  C_28 
REMARK       I    between atoms: N_5  and  C_32 
REMARK    4  A    between atoms: C_16  and  C_18 
REMARK    5  A    between atoms: C_23  and  C_24 
REMARK    6  A    between atoms: C_33  and  C_34 
ROOT
HETATM    1  C   UNK N   1      12.000  16.405  17.896  0.00  0.00     0.035 A 
HETATM    2  C   UNK N   1      10.441  17.872  16.775  0.00  0.00    -0.033 A 
HETATM    3  C   UNK N   1      11.572  17.056  16.739  0.00  0.00     0.038 A 
HETATM    4  C   UNK N   1       9.739  18.037  17.969  0.00  0.00     0.055 A 
HETATM    5  C   UNK N   1      11.299  16.571  19.089  0.00  0.00     0.032 A 
HETATM    6  C   UNK N   1      10.167  17.387  19.125  0.00  0.00     0.033 A 
HETATM    7  C   UNK N   1      10.005  18.557  15.521  0.00  0.00     0.050 C 
ENDROOT
BRANCH   1   8
HETATM    8  N   UNK N   1      13.149  15.576  17.859  0.00  0.00    -0.323 N 
HETATM    9  C   UNK N   1      13.236  14.220  17.514  0.00  0.00     0.256 C 
HETATM   10  O   UNK N   1      12.278  13.509  17.174  0.00  0.00    -0.267 OA
HETATM   11  H   UNK N   1      13.995  16.051  18.163  0.00  0.00     0.169 HD
BRANCH   9  12
HETATM   12  C   UNK N   1      14.570  13.643  17.544  0.00  0.00     0.032 A 
HETATM   13  C   UNK N   1      15.167  13.203  16.363  0.00  0.00     0.017 A 
HETATM   14  C   UNK N   1      16.447  12.649  16.392  0.00  0.00     0.010 A 
HETATM   15  C   UNK N   1      17.130  12.535  17.603  0.00  0.00    -0.030 A 
HETATM   16  C   UNK N   1      16.533  12.974  18.785  0.00  0.00     0.010 A 
HETATM   17  C   UNK N   1      15.253  13.527  18.755  0.00  0.00     0.017 A 
BRANCH  15  18
HETATM   18  C   UNK N   1      18.511  11.937  17.635  0.00  0.00     0.311 C 
BRANCH  18  19
HETATM   19  N   UNK N   1      19.238  12.179  16.390  0.00  0.00     0.096 N 
HETATM   20  C   UNK N   1      19.185  11.000  15.517  0.00  0.00     0.303 C 
HETATM   21  C   UNK N   1      19.948  11.253  14.212  0.00  0.00     0.302 C 
HETATM   22  N   UNK N   1      21.341  11.626  14.484  0.00  0.00     0.087 N 
HETATM   23  C   UNK N   1      21.394  12.805  15.358  0.00  0.00     0.302 C 
HETATM   24  C   UNK N   1      22.066  11.870  13.239  0.00  0.00     0.310 C 
HETATM   25  C   UNK N   1      20.631  12.552  16.663  0.00  0.00     0.303 C 
ENDBRANCH  18  19
ENDBRANCH  15  18
ENDBRANCH   9  12
ENDBRANCH   1   8
BRANCH   4  26
HETATM   26  N   UNK N   1       8.592  18.859  18.023  0.00  0.00    -0.191 N 
HETATM   27  C   UNK N   1       8.173  19.848  18.932  0.00  0.00     0.683 A 
HETATM   28  N   UNK N   1       8.993  20.100  19.970  0.00  0.00    -0.191 N 
HETATM   29  N   UNK N   1       6.996  20.446  18.669  0.00  0.00    -0.202 N 
HETATM   30  C   UNK N   1       8.562  21.055  20.819  0.00  0.00     0.062 A 
ATOM     31  HN  UNK N   1       9.875  19.603  20.105  1.00  0.00     0.184 HD
HETATM   32  C   UNK N   1       7.376  21.742  20.661  0.00  0.00     0.048 A 
HETATM   33  C   UNK N   1       6.625  21.392  19.558  0.00  0.00     0.108 A 
ATOM     34  HN  UNK N   1       6.426  20.202  17.858  1.00  0.00     0.183 HD
HETATM   35  H   UNK N   1       7.883  18.653  17.329  0.00  0.00     0.184 HD
BRANCH  30  36
HETATM   36  C   UNK N   1       9.439  21.328  21.933  0.00  0.00     0.007 A 
HETATM   37  C   UNK N   1       9.767  22.632  22.284  0.00  0.00     0.016 A 
HETATM   38  C   UNK N   1      10.615  22.863  23.363  0.00  0.00     0.018 A 
HETATM   39  C   UNK N   1      11.103  21.764  24.050  0.00  0.00     0.087 A 
HETATM   40  N   UNK N   1      10.807  20.483  23.738  0.00  0.00    -0.374 N 
HETATM   41  C   UNK N   1       9.981  20.297  22.685  0.00  0.00     0.101 A 
ATOM     42  HN  UNK N   1      11.187  19.699  24.268  1.00  0.00     0.164 HD
ENDBRANCH  30  36
ENDBRANCH   4  26
TORSDOF 6
ENDMDL
MODEL 2
REMARK VINA RESULT:      -9.7      1.219      1.722
REMARK  6 active torsions:
REMARK  status: ('A' for Active; 'I' for Inactive)
REMARK    1  A    between atoms: N_2  and  C_16 
REMARK       I    between atoms: N_4  and  C_24 
REMARK    2  A    between atoms: N_4  and  C_25 
REMARK    3  A    between atoms: N_5  and  C_28 
REMARK       I    between atoms: N_5  and  C_32 
REMARK    4  A    between atoms: C_16  and  C_18 
REMARK    5  A    between atoms: C_23  and  C_24 
REMARK    6  A    between atoms: C_33  and  C_34 
ROOT
HETATM    1  C   UNK N   1      11.524  16.611  17.169  0.00  0.00     0.035 A 
HETATM    2  C   UNK N   1      10.459  18.559  16.216  0.00  0.00    -0.033 A 
HETATM    3  C   UNK N   1      11.505  17.636  16.224  0.00  0.00     0.038 A 
HETATM    4  C   UNK N   1       9.433  18.457  17.155  0.00  0.00     0.055 A 
HETATM    5  C   UNK N   1      10.498  16.509  18.108  0.00  0.00     0.032 A 
HETATM    6  C   UNK N   1       9.452  17.432  18.100  0.00  0.00     0.033 A 
HETATM    7  C   UNK N   1      10.465  19.648  15.193  0.00  0.00     0.050 C 
ENDROOT
BRANCH   1   8
HETATM    8  N   UNK N   1      12.586  15.673  17.177  0.00  0.00    -0.323 N 
HETATM    9  C   UNK N   1      13.144  14.997  18.271  0.00  0.00     0.256 C 
HETATM   10  O   UNK N   1      12.778  15.122  19.449  0.00  0.00    -0.267 OA
HETATM   11  H   UNK N   1      12.995  15.523  16.259  0.00  0.00     0.169 HD
BRANCH   9  12
HETATM   12  C   UNK N   1      14.217  14.065  17.959  0.00  0.00     0.032 A 
HETATM   13  C   UNK N   1      14.723  13.227  18.952  0.00  0.00     0.017 A 
HETATM   14  C   UNK N   1      15.752  12.333  18.654  0.00  0.00     0.010 A 
HETATM   15  C   UNK N   1      16.275  12.278  17.361  0.00  0.00    -0.030 A 
HETATM   16  C   UNK N   1      15.769  13.117  16.368  0.00  0.00     0.010 A 
HETATM   17  C   UNK N   1      14.741  14.011  16.667  0.00  0.00     0.017 A 
BRANCH  15  18
HETATM   18  C   UNK N   1      17.385  11.315  17.039  0.00  0.00     0.311 C 
BRANCH  18  19
HETATM   19  N   UNK N   1      18.443  11.947  16.253  0.00  0.00     0.096 N 
HETATM   20  C   UNK N   1      18.953  11.028  15.229  0.00  0.00     0.303 C 
HETATM   21  C   UNK N   1      20.063  11.690  14.406  0.00  0.00     0.302 C 
HETATM   22  N   UNK N   1      21.155  12.149  15.272  0.00  0.00     0.087 N 
HETATM   23  C   UNK N   1      20.644  13.068  16.297  0.00  0.00     0.302 C 
HETATM   24  C   UNK N   1      22.211  12.784  14.486  0.00  0.00     0.310 C 
HETATM   25  C   UNK N   1      19.534  12.405  17.121  0.00  0.00     0.303 C 
ENDBRANCH  18  19
ENDBRANCH  15  18
ENDBRANCH   9  12
ENDBRANCH   1   8
BRANCH   4  26
HETATM   26  N   UNK N   1       8.366  19.383  17.162  0.00  0.00    -0.191 N 
HETATM   27  C   UNK N   1       7.730  20.093  18.196  0.00  0.00     0.683 A 
HETATM   28  N   UNK N   1       8.194  19.887  19.443  0.00  0.00    -0.191 N 
HETATM   29  N   UNK N   1       6.724  20.911  17.833  0.00  0.00    -0.202 N 
HETATM   30  C   UNK N   1       7.563  20.586  20.409  0.00  0.00     0.062 A 
ATOM     31  HN  UNK N   1       8.964  19.248  19.643  1.00  0.00     0.184 HD
HETATM   32  C   UNK N   1       6.519  21.456  20.168  0.00  0.00     0.048 A 
HETATM   33  C   UNK N   1       6.137  21.580  18.848  0.00  0.00     0.108 A 
ATOM     34  HN  UNK N   1       6.426  21.017  16.862  1.00  0.00     0.183 HD
HETATM   35  H   UNK N   1       7.902  19.509  16.269  0.00  0.00     0.184 HD
BRANCH  30  36
HETATM   36  C   UNK N   1       8.057  20.367  21.748  0.00  0.00     0.007 A 
HETATM   37  C   UNK N   1       7.542  19.349  22.544  0.00  0.00     0.016 A 
HETATM   38  C   UNK N   1       8.038  19.164  23.830  0.00  0.00     0.018 A 
HETATM   39  C   UNK N   1       9.039  20.015  24.268  0.00  0.00     0.087 A 
HETATM   40  N   UNK N   1       9.563  21.014  23.524  0.00  0.00    -0.374 N 
HETATM   41  C   UNK N   1       9.057  21.165  22.280  0.00  0.00     0.101 A 
ATOM     42  HN  UNK N   1      10.300  21.622  23.881  1.00  0.00     0.164 HD
ENDBRANCH  30  36
ENDBRANCH   4  26
TORSDOF 6
ENDMDL
MODEL 3
REMARK VINA RESULT:      -9.5      1.574      2.548
REMARK  6 active torsions:
REMARK  status: ('A' for Active; 'I' for Inactive)
REMARK    1  A    between atoms: N_2  and  C_16 
REMARK       I    between atoms: N_4  and  C_24 
REMARK    2  A    between atoms: N_4  and  C_25 
REMARK    3  A    between atoms: N_5  and  C_28 
REMARK       I    between atoms: N_5  and  C_32 
REMARK    4  A    between atoms: C_16  and  C_18 
REMARK    5  A    between atoms: C_23  and  C_24 
REMARK    6  A    between atoms: C_33  and  C_34 
ROOT
HETATM    1  C   UNK N   1      11.045  16.961  19.171  0.00  0.00     0.035 A 
HETATM    2  C   UNK N   1       9.504  18.593  18.276  0.00  0.00    -0.033 A 
HETATM    3  C   UNK N   1      10.413  17.553  18.078  0.00  0.00     0.038 A 
HETATM    4  C   UNK N   1       9.228  19.040  19.567  0.00  0.00     0.055 A 
HETATM    5  C   UNK N   1      10.768  17.408  20.462  0.00  0.00     0.032 A 
HETATM    6  C   UNK N   1       9.859  18.448  20.661  0.00  0.00     0.033 A 
HETATM    7  C   UNK N   1       8.843  19.209  17.086  0.00  0.00     0.050 C 
ENDROOT
BRANCH   1   8
HETATM    8  N   UNK N   1      11.968  15.905  18.970  0.00  0.00    -0.323 N 
HETATM    9  C   UNK N   1      12.708  15.600  17.819  0.00  0.00     0.256 C 
HETATM   10  O   UNK N   1      12.664  16.236  16.755  0.00  0.00    -0.267 OA
HETATM   11  H   UNK N   1      12.052  15.288  19.773  0.00  0.00     0.169 HD
BRANCH   9  12
HETATM   12  C   UNK N   1      13.603  14.459  17.924  0.00  0.00     0.032 A 
HETATM   13  C   UNK N   1      13.637  13.705  19.098  0.00  0.00     0.017 A 
HETATM   14  C   UNK N   1      14.496  12.611  19.199  0.00  0.00     0.010 A 
HETATM   15  C   UNK N   1      15.320  12.269  18.126  0.00  0.00    -0.030 A 
HETATM   16  C   UNK N   1      15.287  13.023  16.953  0.00  0.00     0.010 A 
HETATM   17  C   UNK N   1      14.428  14.118  16.852  0.00  0.00     0.017 A 
BRANCH  15  18
HETATM   18  C   UNK N   1      16.247  11.088  18.235  0.00  0.00     0.311 C 
BRANCH  18  19
HETATM   19  N   UNK N   1      17.586  11.401  17.740  0.00  0.00     0.096 N 
HETATM   20  C   UNK N   1      18.106  12.618  18.374  0.00  0.00     0.303 C 
HETATM   21  C   UNK N   1      19.510  12.947  17.853  0.00  0.00     0.302 C 
HETATM   22  N   UNK N   1      19.507  13.091  16.393  0.00  0.00     0.087 N 
HETATM   23  C   UNK N   1      18.985  11.874  15.759  0.00  0.00     0.302 C 
HETATM   24  C   UNK N   1      20.846  13.401  15.898  0.00  0.00     0.310 C 
HETATM   25  C   UNK N   1      17.581  11.545  16.279  0.00  0.00     0.303 C 
ENDBRANCH  18  19
ENDBRANCH  15  18
ENDBRANCH   9  12
ENDBRANCH   1   8
BRANCH   4  26
HETATM   26  N   UNK N   1       8.310  20.091  19.787  0.00  0.00    -0.191 N 
HETATM   27  C   UNK N   1       8.360  21.246  20.588  0.00  0.00     0.683 A 
HETATM   28  N   UNK N   1       9.484  21.433  21.306  0.00  0.00    -0.191 N 
HETATM   29  N   UNK N   1       7.280  22.049  20.553  0.00  0.00    -0.202 N 
HETATM   30  C   UNK N   1       9.499  22.551  22.060  0.00  0.00     0.062 A 
ATOM     31  HN  UNK N   1      10.266  20.777  21.282  1.00  0.00     0.184 HD
HETATM   32  C   UNK N   1       8.458  23.455  22.112  0.00  0.00     0.048 A 
HETATM   33  C   UNK N   1       7.362  23.149  21.331  0.00  0.00     0.108 A 
ATOM     34  HN  UNK N   1       6.461  21.841  19.982  1.00  0.00     0.183 HD
HETATM   35  H   UNK N   1       7.401  19.963  19.356  0.00  0.00     0.184 HD
BRANCH  30  36
HETATM   36  C   UNK N   1      10.703  22.756  22.831  0.00  0.00     0.007 A 
HETATM   37  C   UNK N   1      11.290  21.709  23.533  0.00  0.00     0.016 A 
HETATM   38  C   UNK N   1      12.449  21.937  24.268  0.00  0.00     0.018 A 
HETATM   39  C   UNK N   1      12.976  23.218  24.267  0.00  0.00     0.087 A 
HETATM   40  N   UNK N   1      12.433  24.259  23.598  0.00  0.00    -0.374 N 
HETATM   41  C   UNK N   1      11.308  24.001  22.896  0.00  0.00     0.101 A 
ATOM     42  HN  UNK N   1      12.850  25.190  23.622  1.00  0.00     0.164 HD
ENDBRANCH  30  36
ENDBRANCH   4  26
TORSDOF 6
ENDMDL
