MODEL 1
REMARK VINA RESULT:      -9.3      0.000      0.000
REMARK  6 active torsions:
REMARK  status: ('A' for Active; 'I' for Inactive)
REMARK    1  A    between atoms: N_3  and  C_17 
REMARK       I    between atoms: N_5  and  C_25 
REMARK    2  A    between atoms: N_5  and  C_26 
REMARK    3  A    between atoms: N_6  and  C_28 
REMARK       I    between atoms: N_6  and  C_33 
REMARK    4  A    between atoms: C_17  and  C_18 
REMARK    5  A    between atoms: C_24  and  C_25 
REMARK    6  A    between atoms: C_34  and  C_35 
ROOT
HETATM    1  C   UNK N   1      11.429  16.868  18.389  0.00  0.00     0.037 A 
HETATM    2  C   UNK N   1      10.608  16.949  19.541  0.00  0.00     0.060 A 
HETATM    3  C   UNK N   1       9.442  17.760  19.549  0.00  0.00     0.057 A 
HETATM    4  C   UNK N   1      11.067  17.612  17.257  0.00  0.00     0.030 A 
HETATM    5  C   UNK N   1       9.104  18.479  18.371  0.00  0.00    -0.035 A 
HETATM    6  C   UNK N   1       9.930  18.403  17.247  0.00  0.00     0.011 A 
HETATM    7  C   UNK N   1       7.871  19.342  18.300  0.00  0.00     0.050 C 
ENDROOT
BRANCH   1   8
HETATM    8  N   UNK N   1      12.605  16.043  18.281  0.00  0.00    -0.323 N 
HETATM    9  C   UNK N   1      12.750  14.864  17.593  0.00  0.00     0.256 C 
HETATM   10  O   UNK N   1      11.803  14.355  17.019  0.00  0.00    -0.267 OA
HETATM   11  H   UNK N   1      13.408  16.367  18.832  0.00  0.00     0.169 HD
BRANCH   9  12
HETATM   12  C   UNK N   1      14.066  14.137  17.596  0.00  0.00     0.032 A 
HETATM   13  C   UNK N   1      14.879  14.075  18.749  0.00  0.00     0.017 A 
HETATM   14  C   UNK N   1      16.075  13.363  18.740  0.00  0.00     0.010 A 
HETATM   15  C   UNK N   1      16.487  12.676  17.592  0.00  0.00    -0.025 A 
HETATM   16  C   UNK N   1      15.702  12.752  16.431  0.00  0.00     0.010 A 
HETATM   17  C   UNK N   1      14.510  13.486  16.427  0.00  0.00     0.017 A 
BRANCH  15  18
HETATM   18  C   UNK N   1      17.757  11.847  17.633  0.00  0.00     0.350 C 
BRANCH  18  19
HETATM   19  N   UNK N   1      18.711  12.199  16.547  0.00  0.00     0.021 N 
HETATM   20  O   UNK N   1      18.140  13.131  15.741  0.00  0.00    -0.064 OA
HETATM   21  C   UNK N   1      19.940  12.782  17.137  0.00  0.00     0.342 C 
HETATM   22  C   UNK N   1      20.996  13.086  16.061  0.00  0.00     0.308 C 
HETATM   23  N   UNK N   1      21.328  11.852  15.328  0.00  0.00     0.088 N 
HETATM   24  C   UNK N   1      20.121  11.316  14.676  0.00  0.00     0.308 C 
HETATM   25  C   UNK N   1      22.379  12.105  14.332  0.00  0.00     0.310 C 
HETATM   26  C   UNK N   1      19.058  11.000  15.736  0.00  0.00     0.342 C 
ENDBRANCH  18  19
ENDBRANCH  15  18
ENDBRANCH   9  12
ENDBRANCH   1   8
BRANCH   3  27
HETATM   27  N   UNK N   1       8.576  17.840  20.695  0.00  0.00    -0.191 N 
HETATM   28  C   UNK N   1       8.811  18.584  21.889  0.00  0.00     0.683 A 
HETATM   29  N   UNK N   1       9.809  19.507  21.970  0.00  0.00    -0.191 N 
HETATM   30  N   UNK N   1       7.972  18.414  22.943  0.00  0.00    -0.202 N 
HETATM   31  C   UNK N   1      10.022  20.236  23.103  0.00  0.00     0.062 A 
ATOM     32  HN  UNK N   1      10.413  19.658  21.162  1.00  0.00     0.184 HD
HETATM   33  C   UNK N   1       9.168  20.039  24.202  0.00  0.00     0.048 A 
HETATM   34  C   UNK N   1       8.133  19.117  24.091  0.00  0.00     0.108 A 
ATOM     35  HN  UNK N   1       7.206  17.745  22.870  1.00  0.00     0.183 HD
HETATM   36  H   UNK N   1       7.675  17.343  20.656  0.00  0.00     0.184 HD
BRANCH  31  37
HETATM   37  C   UNK N   1      11.141  21.225  23.136  0.00  0.00     0.007 A 
HETATM   38  C   UNK N   1      10.873  22.595  22.960  0.00  0.00     0.016 A 
HETATM   39  C   UNK N   1      11.912  23.526  22.996  0.00  0.00     0.018 A 
HETATM   40  C   UNK N   1      13.219  23.087  23.195  0.00  0.00     0.087 A 
HETATM   41  N   UNK N   1      13.476  21.764  23.356  0.00  0.00    -0.374 N 
HETATM   42  C   UNK N   1      12.483  20.834  23.337  0.00  0.00     0.101 A 
ATOM     43  HN  UNK N   1      14.439  21.459  23.496  1.00  0.00     0.164 HD
ENDBRANCH  31  37
ENDBRANCH   3  27
TORSDOF 6
ENDMDL
MODEL 2
REMARK VINA RESULT:      -9.2      1.727      2.295
REMARK  6 active torsions:
REMARK  status: ('A' for Active; 'I' for Inactive)
REMARK    1  A    between atoms: N_3  and  C_17 
REMARK       I    between atoms: N_5  and  C_25 
REMARK    2  A    between atoms: N_5  and  C_26 
REMARK    3  A    between atoms: N_6  and  C_28 
REMARK       I    between atoms: N_6  and  C_33 
REMARK    4  A    between atoms: C_17  and  C_18 
REMARK    5  A    between atoms: C_24  and  C_25 
REMARK    6  A    between atoms: C_34  and  C_35 
ROOT
HETATM    1  C   UNK N   1      10.382  17.649  18.952  0.00  0.00     0.037 A 
HETATM    2  C   UNK N   1       9.693  18.154  20.082  0.00  0.00     0.060 A 
HETATM    3  C   UNK N   1       8.802  19.253  19.961  0.00  0.00     0.057 A 
HETATM    4  C   UNK N   1      10.169  18.263  17.710  0.00  0.00     0.030 A 
HETATM    5  C   UNK N   1       8.601  19.830  18.678  0.00  0.00    -0.035 A 
HETATM    6  C   UNK N   1       9.299  19.333  17.575  0.00  0.00     0.011 A 
HETATM    7  C   UNK N   1       7.655  20.984  18.471  0.00  0.00     0.050 C 
ENDROOT
BRANCH   1   8
HETATM    8  N   UNK N   1      11.273  16.518  18.978  0.00  0.00    -0.323 N 
HETATM    9  C   UNK N   1      12.153  16.112  18.005  0.00  0.00     0.256 C 
HETATM   10  O   UNK N   1      12.214  16.695  16.935  0.00  0.00    -0.267 OA
HETATM   11  H   UNK N   1      11.191  15.926  19.812  0.00  0.00     0.169 HD
BRANCH   9  12
HETATM   12  C   UNK N   1      13.008  14.894  18.211  0.00  0.00     0.032 A 
HETATM   13  C   UNK N   1      13.223  14.343  19.494  0.00  0.00     0.017 A 
HETATM   14  C   UNK N   1      13.987  13.191  19.656  0.00  0.00     0.010 A 
HETATM   15  C   UNK N   1      14.542  12.542  18.548  0.00  0.00    -0.025 A 
HETATM   16  C   UNK N   1      14.360  13.094  17.270  0.00  0.00     0.010 A 
HETATM   17  C   UNK N   1      13.612  14.265  17.103  0.00  0.00     0.017 A 
BRANCH  15  18
HETATM   18  C   UNK N   1      15.308  11.247  18.746  0.00  0.00     0.350 C 
BRANCH  18  19
HETATM   19  N   UNK N   1      16.770  11.399  18.511  0.00  0.00     0.021 N 
HETATM   20  O   UNK N   1      17.423  10.366  19.105  0.00  0.00    -0.064 OA
HETATM   21  C   UNK N   1      17.044  11.350  17.054  0.00  0.00     0.342 C 
HETATM   22  C   UNK N   1      18.534  11.587  16.751  0.00  0.00     0.308 C 
HETATM   23  N   UNK N   1      18.951  12.890  17.297  0.00  0.00     0.088 N 
HETATM   24  C   UNK N   1      18.751  12.909  18.756  0.00  0.00     0.308 C 
HETATM   25  C   UNK N   1      20.357  13.166  16.969  0.00  0.00     0.310 C 
HETATM   26  C   UNK N   1      17.268  12.681  19.077  0.00  0.00     0.342 C 
ENDBRANCH  18  19
ENDBRANCH  15  18
ENDBRANCH   9  12
ENDBRANCH   1   8
BRANCH   3  27
HETATM   27  N   UNK N   1       8.068  19.768  21.086  0.00  0.00    -0.191 N 
HETATM   28  C   UNK N   1       8.595  20.545  22.161  0.00  0.00     0.683 A 
HETATM   29  N   UNK N   1       9.843  21.086  22.107  0.00  0.00    -0.191 N 
HETATM   30  N   UNK N   1       7.800  20.806  23.232  0.00  0.00    -0.202 N 
HETATM   31  C   UNK N   1      10.340  21.848  23.124  0.00  0.00     0.062 A 
ATOM     32  HN  UNK N   1      10.422  20.918  21.284  1.00  0.00     0.184 HD
HETATM   33  C   UNK N   1       9.525  22.094  24.242  0.00  0.00     0.048 A 
HETATM   34  C   UNK N   1       8.240  21.562  24.267  0.00  0.00     0.108 A 
ATOM     35  HN  UNK N   1       6.854  20.426  23.256  1.00  0.00     0.183 HD
HETATM   36  H   UNK N   1       7.054  19.599  21.122  0.00  0.00     0.184 HD
BRANCH  31  37
HETATM   37  C   UNK N   1      11.722  22.404  23.012  0.00  0.00     0.007 A 
HETATM   38  C   UNK N   1      11.920  23.690  22.478  0.00  0.00     0.016 A 
HETATM   39  C   UNK N   1      13.207  24.220  22.376  0.00  0.00     0.018 A 
HETATM   40  C   UNK N   1      14.297  23.459  22.797  0.00  0.00     0.087 A 
HETATM   41  N   UNK N   1      14.103  22.214  23.304  0.00  0.00    -0.374 N 
HETATM   42  C   UNK N   1      12.860  21.676  23.425  0.00  0.00     0.101 A 
ATOM     43  HN  UNK N   1      14.911  21.669  23.602  1.00  0.00     0.164 HD
ENDBRANCH  31  37
ENDBRANCH   3  27
TORSDOF 6
ENDMDL
MODEL 3
REMARK VINA RESULT:      -8.4      2.714     12.165
REMARK  6 active torsions:
REMARK  status: ('A' for Active; 'I' for Inactive)
REMARK    1  A    between atoms: N_3  and  C_17 
REMARK       I    between atoms: N_5  and  C_25 
REMARK    2  A    between atoms: N_5  and  C_26 
REMARK    3  A    between atoms: N_6  and  C_28 
REMARK       I    between atoms: N_6  and  C_33 
REMARK    4  A    between atoms: C_17  and  C_18 
REMARK    5  A    between atoms: C_24  and  C_25 
REMARK    6  A    between atoms: C_34  and  C_35 
ROOT
HETATM    1  C   UNK N   1      13.452  14.021  19.035  0.00  0.00     0.037 A 
HETATM    2  C   UNK N   1      14.806  14.316  19.328  0.00  0.00     0.060 A 
HETATM    3  C   UNK N   1      15.764  13.277  19.473  0.00  0.00     0.057 A 
HETATM    4  C   UNK N   1      13.076  12.677  18.895  0.00  0.00     0.030 A 
HETATM    5  C   UNK N   1      15.341  11.931  19.302  0.00  0.00    -0.035 A 
HETATM    6  C   UNK N   1      14.000  11.653  19.028  0.00  0.00     0.011 A 
HETATM    7  C   UNK N   1      16.306  10.780  19.420  0.00  0.00     0.050 C 
ENDROOT
BRANCH   1   8
HETATM    8  N   UNK N   1      12.425  15.011  18.835  0.00  0.00    -0.323 N 
HETATM    9  C   UNK N   1      12.259  15.851  17.762  0.00  0.00     0.256 C 
HETATM   10  O   UNK N   1      13.065  15.863  16.847  0.00  0.00    -0.267 OA
HETATM   11  H   UNK N   1      11.776  15.120  19.622  0.00  0.00     0.169 HD
BRANCH   9  12
HETATM   12  C   UNK N   1      11.118  16.828  17.729  0.00  0.00     0.032 A 
HETATM   13  C   UNK N   1      10.098  16.815  18.707  0.00  0.00     0.017 A 
HETATM   14  C   UNK N   1       9.072  17.756  18.679  0.00  0.00     0.010 A 
HETATM   15  C   UNK N   1       9.041  18.747  17.692  0.00  0.00    -0.025 A 
HETATM   16  C   UNK N   1      10.032  18.755  16.698  0.00  0.00     0.010 A 
HETATM   17  C   UNK N   1      11.054  17.798  16.708  0.00  0.00     0.017 A 
BRANCH  15  18
HETATM   18  C   UNK N   1       7.953  19.804  17.729  0.00  0.00     0.350 C 
BRANCH  18  19
HETATM   19  N   UNK N   1       8.061  20.704  18.909  0.00  0.00     0.021 N 
HETATM   20  O   UNK N   1       8.714  21.838  18.542  0.00  0.00    -0.064 OA
HETATM   21  C   UNK N   1       6.704  21.077  19.374  0.00  0.00     0.342 C 
HETATM   22  C   UNK N   1       6.759  21.940  20.646  0.00  0.00     0.308 C 
HETATM   23  N   UNK N   1       7.472  21.213  21.710  0.00  0.00     0.088 N 
HETATM   24  C   UNK N   1       8.847  20.912  21.277  0.00  0.00     0.308 C 
HETATM   25  C   UNK N   1       7.487  21.994  22.955  0.00  0.00     0.310 C 
HETATM   26  C   UNK N   1       8.811  20.045  20.012  0.00  0.00     0.342 C 
ENDBRANCH  18  19
ENDBRANCH  15  18
ENDBRANCH   9  12
ENDBRANCH   1   8
BRANCH   3  27
HETATM   27  N   UNK N   1      17.150  13.550  19.744  0.00  0.00    -0.191 N 
HETATM   28  C   UNK N   1      18.264  13.181  18.932  0.00  0.00     0.683 A 
HETATM   29  N   UNK N   1      18.100  12.718  17.663  0.00  0.00    -0.191 N 
HETATM   30  N   UNK N   1      19.519  13.367  19.418  0.00  0.00    -0.202 N 
HETATM   31  C   UNK N   1      19.164  12.385  16.876  0.00  0.00     0.062 A 
ATOM     32  HN  UNK N   1      17.156  12.615  17.289  1.00  0.00     0.184 HD
HETATM   33  C   UNK N   1      20.461  12.552  17.392  0.00  0.00     0.048 A 
HETATM   34  C   UNK N   1      20.612  13.060  18.678  0.00  0.00     0.108 A 
ATOM     35  HN  UNK N   1      19.641  13.744  20.358  1.00  0.00     0.183 HD
HETATM   36  H   UNK N   1      17.381  14.094  20.587  0.00  0.00     0.184 HD
BRANCH  31  37
HETATM   37  C   UNK N   1      18.920  11.869  15.496  0.00  0.00     0.007 A 
HETATM   38  C   UNK N   1      20.008  11.575  14.654  0.00  0.00     0.016 A 
HETATM   39  C   UNK N   1      19.788  11.087  13.365  0.00  0.00     0.018 A 
HETATM   40  C   UNK N   1      18.482  10.904  12.914  0.00  0.00     0.087 A 
HETATM   41  N   UNK N   1      17.435  11.196  13.726  0.00  0.00    -0.374 N 
HETATM   42  C   UNK N   1      17.617  11.664  14.991  0.00  0.00     0.101 A 
ATOM     43  HN  UNK N   1      16.486  11.062  13.380  1.00  0.00     0.164 HD
ENDBRANCH  31  37
ENDBRANCH   3  27
TORSDOF 6
ENDMDL
MODEL 4
REMARK VINA RESULT:      -6.4      2.392      3.635
REMARK  6 active torsions:
REMARK  status: ('A' for Active; 'I' for Inactive)
REMARK    1  A    between atoms: N_3  and  C_17 
REMARK       I    between atoms: N_5  and  C_25 
REMARK    2  A    between atoms: N_5  and  C_26 
REMARK    3  A    between atoms: N_6  and  C_28 
REMARK       I    between atoms: N_6  and  C_33 
REMARK    4  A    between atoms: C_17  and  C_18 
REMARK    5  A    between atoms: C_24  and  C_25 
REMARK    6  A    between atoms: C_34  and  C_35 
ROOT
HETATM    1  C   UNK N   1      12.385  15.940  17.992  0.00  0.00     0.037 A 
HETATM    2  C   UNK N   1      11.882  16.899  17.079  0.00  0.00     0.060 A 
HETATM    3  C   UNK N   1      10.640  17.547  17.315  0.00  0.00     0.057 A 
HETATM    4  C   UNK N   1      11.627  15.640  19.133  0.00  0.00     0.030 A 
HETATM    5  C   UNK N   1       9.916  17.226  18.495  0.00  0.00    -0.035 A 
HETATM    6  C   UNK N   1      10.416  16.268  19.379  0.00  0.00     0.011 A 
HETATM    7  C   UNK N   1       8.603  17.890  18.820  0.00  0.00     0.050 C 
ENDROOT
BRANCH   1   8
HETATM    8  N   UNK N   1      13.649  15.264  17.852  0.00  0.00    -0.323 N 
HETATM    9  C   UNK N   1      13.874  13.931  17.612  0.00  0.00     0.256 C 
HETATM   10  O   UNK N   1      12.946  13.143  17.549  0.00  0.00    -0.267 OA
HETATM   11  H   UNK N   1      14.472  15.859  18.000  0.00  0.00     0.169 HD
BRANCH   9  12
HETATM   12  C   UNK N   1      15.276  13.403  17.496  0.00  0.00     0.032 A 
HETATM   13  C   UNK N   1      16.132  13.313  18.616  0.00  0.00     0.017 A 
HETATM   14  C   UNK N   1      17.414  12.784  18.493  0.00  0.00     0.010 A 
HETATM   15  C   UNK N   1      17.874  12.311  17.258  0.00  0.00    -0.025 A 
HETATM   16  C   UNK N   1      17.044  12.419  16.131  0.00  0.00     0.010 A 
HETATM   17  C   UNK N   1      15.763  12.972  16.245  0.00  0.00     0.017 A 
BRANCH  15  18
HETATM   18  C   UNK N   1      19.247  11.671  17.168  0.00  0.00     0.350 C 
BRANCH  18  19
HETATM   19  N   UNK N   1      19.948  11.987  15.895  0.00  0.00     0.021 N 
HETATM   20  O   UNK N   1      19.529  13.200  15.447  0.00  0.00    -0.064 OA
HETATM   21  C   UNK N   1      21.409  12.059  16.139  0.00  0.00     0.342 C 
HETATM   22  C   UNK N   1      22.189  12.301  14.835  0.00  0.00     0.308 C 
HETATM   23  N   UNK N   1      21.894  11.225  13.873  0.00  0.00     0.088 N 
HETATM   24  C   UNK N   1      20.453  11.205  13.570  0.00  0.00     0.308 C 
HETATM   25  C   UNK N   1      22.674  11.402  12.640  0.00  0.00     0.310 C 
HETATM   26  C   UNK N   1      19.658  10.959  14.860  0.00  0.00     0.342 C 
ENDBRANCH  18  19
ENDBRANCH  15  18
ENDBRANCH   9  12
ENDBRANCH   1   8
BRANCH   3  27
HETATM   27  N   UNK N   1      10.118  18.544  16.418  0.00  0.00    -0.191 N 
HETATM   28  C   UNK N   1       9.287  19.650  16.767  0.00  0.00     0.683 A 
HETATM   29  N   UNK N   1       9.087  20.012  18.064  0.00  0.00    -0.191 N 
HETATM   30  N   UNK N   1       8.743  20.400  15.773  0.00  0.00    -0.202 N 
HETATM   31  C   UNK N   1       8.311  21.082  18.400  0.00  0.00     0.062 A 
ATOM     32  HN  UNK N   1       9.529  19.468  18.806  1.00  0.00     0.184 HD
HETATM   33  C   UNK N   1       7.727  21.840  17.370  0.00  0.00     0.048 A 
HETATM   34  C   UNK N   1       7.969  21.477  16.049  0.00  0.00     0.108 A 
ATOM     35  HN  UNK N   1       8.919  20.146  14.801  1.00  0.00     0.183 HD
HETATM   36  H   UNK N   1      10.386  18.491  15.426  0.00  0.00     0.184 HD
BRANCH  31  37
HETATM   37  C   UNK N   1       8.118  21.422  19.842  0.00  0.00     0.007 A 
HETATM   38  C   UNK N   1       6.954  21.003  20.512  0.00  0.00     0.016 A 
HETATM   39  C   UNK N   1       6.770  21.311  21.861  0.00  0.00     0.018 A 
HETATM   40  C   UNK N   1       7.742  22.048  22.535  0.00  0.00     0.087 A 
HETATM   41  N   UNK N   1       8.860  22.458  21.883  0.00  0.00    -0.374 N 
HETATM   42  C   UNK N   1       9.073  22.164  20.572  0.00  0.00     0.101 A 
ATOM     43  HN  UNK N   1       9.559  23.000  22.389  1.00  0.00     0.164 HD
ENDBRANCH  31  37
ENDBRANCH   3  27
TORSDOF 6
ENDMDL
