MODEL 1
REMARK VINA RESULT:      -9.9      0.000      0.000
REMARK  7 active torsions:
REMARK  status: ('A' for Active; 'I' for Inactive)
REMARK    1  A    between atoms: N_3  and  C_17 
REMARK    2  A    between atoms: N_4  and  C_19 
REMARK       I    between atoms: N_5  and  C_25 
REMARK    3  A    between atoms: N_5  and  C_26 
REMARK    4  A    between atoms: N_6  and  C_27 
REMARK       I    between atoms: N_6  and  C_33 
REMARK    5  A    between atoms: C_17  and  C_18 
REMARK    6  A    between atoms: C_24  and  C_25 
REMARK    7  A    between atoms: C_34  and  C_35 
ROOT
HETATM    1  C   UNK N   1      11.268  16.952  18.628  0.00  0.00     0.037 A 
HETATM    2  C   UNK N   1       9.305  17.973  19.724  0.00  0.00     0.057 A 
HETATM    3  C   UNK N   1      10.443  17.121  19.769  0.00  0.00     0.060 A 
HETATM    4  C   UNK N   1       9.001  18.644  18.508  0.00  0.00    -0.035 A 
HETATM    5  C   UNK N   1      10.939  17.648  17.456  0.00  0.00     0.030 A 
HETATM    6  C   UNK N   1       9.832  18.479  17.397  0.00  0.00     0.011 A 
HETATM    7  C   UNK N   1       7.801  19.547  18.382  0.00  0.00     0.050 C 
ENDROOT
BRANCH   1   8
HETATM    8  N   UNK N   1      12.414  16.081  18.569  0.00  0.00    -0.323 N 
HETATM    9  C   UNK N   1      12.630  15.026  17.717  0.00  0.00     0.256 C 
HETATM   10  O   UNK N   1      11.775  14.683  16.918  0.00  0.00    -0.267 OA
HETATM   11  H   UNK N   1      13.122  16.252  19.291  0.00  0.00     0.169 HD
BRANCH   9  12
HETATM   12  C   UNK N   1      13.900  14.224  17.804  0.00  0.00     0.032 A 
HETATM   13  C   UNK N   1      14.495  13.641  16.661  0.00  0.00     0.017 A 
HETATM   14  C   UNK N   1      15.688  12.927  16.762  0.00  0.00     0.010 A 
HETATM   15  C   UNK N   1      16.330  12.792  17.997  0.00  0.00    -0.030 A 
HETATM   16  C   UNK N   1      15.745  13.351  19.143  0.00  0.00     0.010 A 
HETATM   17  C   UNK N   1      14.533  14.046  19.051  0.00  0.00     0.017 A 
BRANCH  15  18
HETATM   18  C   UNK N   1      17.651  12.069  18.090  0.00  0.00     0.311 C 
BRANCH  18  19
HETATM   19  N   UNK N   1      18.527  12.478  16.972  0.00  0.00     0.095 N 
HETATM   20  C   UNK N   1      19.864  12.871  17.471  0.00  0.00     0.292 C 
HETATM   21  C   UNK N   1      20.743  13.336  16.302  0.00  0.00     0.155 C 
HETATM   22  N   UNK N   1      20.785  12.271  15.312  0.00  0.00    -0.356 N 
HETATM   23  C   UNK N   1      19.512  11.802  14.800  0.00  0.00     0.155 C 
HETATM   24  C   UNK N   1      18.650  11.369  15.987  0.00  0.00     0.292 C 
BRANCH  22  25
HETATM   25  C   UNK N   1      21.954  11.701  14.898  0.00  0.00     0.350 C 
HETATM   26  O   UNK N   1      22.744  12.319  14.202  0.00  0.00    -0.284 OA
ENDBRANCH  22  25
ENDBRANCH  18  19
ENDBRANCH  15  18
ENDBRANCH   9  12
ENDBRANCH   1   8
BRANCH   2  27
HETATM   27  N   UNK N   1       8.427  18.138  20.853  0.00  0.00    -0.191 N 
HETATM   28  C   UNK N   1       8.673  18.927  22.016  0.00  0.00     0.683 A 
HETATM   29  N   UNK N   1       9.701  19.817  22.072  0.00  0.00    -0.191 N 
HETATM   30  N   UNK N   1       7.814  18.831  23.066  0.00  0.00    -0.202 N 
HETATM   31  C   UNK N   1       9.922  20.589  23.173  0.00  0.00     0.062 A 
ATOM     32  HN  UNK N   1      10.321  19.910  21.268  1.00  0.00     0.184 HD
HETATM   33  C   UNK N   1       9.048  20.470  24.268  0.00  0.00     0.048 A 
HETATM   34  C   UNK N   1       7.984  19.577  24.183  0.00  0.00     0.108 A 
ATOM     35  HN  UNK N   1       7.026  18.185  23.010  1.00  0.00     0.183 HD
HETATM   36  H   UNK N   1       7.509  17.673  20.825  0.00  0.00     0.184 HD
BRANCH  31  37
HETATM   37  C   UNK N   1      11.072  21.544  23.174  0.00  0.00     0.007 A 
HETATM   38  C   UNK N   1      10.870  22.884  22.798  0.00  0.00     0.016 A 
HETATM   39  C   UNK N   1      11.936  23.784  22.801  0.00  0.00     0.018 A 
HETATM   40  C   UNK N   1      13.206  23.342  23.168  0.00  0.00     0.087 A 
HETATM   41  N   UNK N   1      13.399  22.046  23.524  0.00  0.00    -0.374 N 
HETATM   42  C   UNK N   1      12.377  21.148  23.541  0.00  0.00     0.101 A 
ATOM     43  HN  UNK N   1      14.335  21.738  23.787  1.00  0.00     0.164 HD
ENDBRANCH  31  37
ENDBRANCH   2  27
TORSDOF 7
ENDMDL
MODEL 2
REMARK VINA RESULT:      -9.4      1.966      2.373
REMARK  7 active torsions:
REMARK  status: ('A' for Active; 'I' for Inactive)
REMARK    1  A    between atoms: N_3  and  C_17 
REMARK    2  A    between atoms: N_4  and  C_19 
REMARK       I    between atoms: N_5  and  C_25 
REMARK    3  A    between atoms: N_5  and  C_26 
REMARK    4  A    between atoms: N_6  and  C_27 
REMARK       I    between atoms: N_6  and  C_33 
REMARK    5  A    between atoms: C_17  and  C_18 
REMARK    6  A    between atoms: C_24  and  C_25 
REMARK    7  A    between atoms: C_34  and  C_35 
ROOT
HETATM    1  C   UNK N   1      10.900  17.689  16.974  0.00  0.00     0.037 A 
HETATM    2  C   UNK N   1       9.057  19.075  17.857  0.00  0.00     0.057 A 
HETATM    3  C   UNK N   1      10.048  18.072  18.042  0.00  0.00     0.060 A 
HETATM    4  C   UNK N   1       8.928  19.680  16.577  0.00  0.00    -0.035 A 
HETATM    5  C   UNK N   1      10.747  18.325  15.735  0.00  0.00     0.030 A 
HETATM    6  C   UNK N   1       9.784  19.303  15.540  0.00  0.00     0.011 A 
HETATM    7  C   UNK N   1       7.888  20.737  16.304  0.00  0.00     0.050 C 
ENDROOT
BRANCH   1   8
HETATM    8  N   UNK N   1      11.901  16.656  17.058  0.00  0.00    -0.323 N 
HETATM    9  C   UNK N   1      12.245  15.899  18.150  0.00  0.00     0.256 C 
HETATM   10  O   UNK N   1      11.727  16.099  19.236  0.00  0.00    -0.267 OA
HETATM   11  H   UNK N   1      12.448  16.516  16.201  0.00  0.00     0.169 HD
BRANCH   9  12
HETATM   12  C   UNK N   1      13.324  14.856  18.045  0.00  0.00     0.032 A 
HETATM   13  C   UNK N   1      13.507  13.867  19.041  0.00  0.00     0.017 A 
HETATM   14  C   UNK N   1      14.496  12.893  18.907  0.00  0.00     0.010 A 
HETATM   15  C   UNK N   1      15.312  12.864  17.773  0.00  0.00    -0.030 A 
HETATM   16  C   UNK N   1      15.154  13.846  16.783  0.00  0.00     0.010 A 
HETATM   17  C   UNK N   1      14.181  14.843  16.925  0.00  0.00     0.017 A 
BRANCH  15  18
HETATM   18  C   UNK N   1      16.339  11.772  17.606  0.00  0.00     0.311 C 
BRANCH  18  19
HETATM   19  N   UNK N   1      17.366  12.192  16.629  0.00  0.00     0.095 N 
HETATM   20  C   UNK N   1      18.722  12.080  17.213  0.00  0.00     0.292 C 
HETATM   21  C   UNK N   1      19.769  12.564  16.201  0.00  0.00     0.155 C 
HETATM   22  N   UNK N   1      19.602  11.804  14.973  0.00  0.00    -0.356 N 
HETATM   23  C   UNK N   1      18.290  11.832  14.358  0.00  0.00     0.155 C 
HETATM   24  C   UNK N   1      17.266  11.368  15.395  0.00  0.00     0.292 C 
BRANCH  22  25
HETATM   25  C   UNK N   1      20.610  11.061  14.429  0.00  0.00     0.350 C 
HETATM   26  O   UNK N   1      20.534  10.639  13.285  0.00  0.00    -0.284 OA
ENDBRANCH  22  25
ENDBRANCH  18  19
ENDBRANCH  15  18
ENDBRANCH   9  12
ENDBRANCH   1   8
BRANCH   2  27
HETATM   27  N   UNK N   1       8.153  19.462  18.909  0.00  0.00    -0.191 N 
HETATM   28  C   UNK N   1       8.404  19.408  20.312  0.00  0.00     0.683 A 
HETATM   29  N   UNK N   1       9.654  19.194  20.806  0.00  0.00    -0.191 N 
HETATM   30  N   UNK N   1       7.377  19.645  21.171  0.00  0.00    -0.202 N 
HETATM   31  C   UNK N   1       9.900  19.167  22.147  0.00  0.00     0.062 A 
ATOM     32  HN  UNK N   1      10.428  19.052  20.157  1.00  0.00     0.184 HD
HETATM   33  C   UNK N   1       8.831  19.387  23.034  0.00  0.00     0.048 A 
HETATM   34  C   UNK N   1       7.566  19.634  22.512  0.00  0.00     0.108 A 
ATOM     35  HN  UNK N   1       6.447  19.835  20.797  1.00  0.00     0.183 HD
HETATM   36  H   UNK N   1       7.238  19.849  18.642  0.00  0.00     0.184 HD
BRANCH  31  37
HETATM   37  C   UNK N   1      11.295  18.922  22.627  0.00  0.00     0.007 A 
HETATM   38  C   UNK N   1      11.748  19.540  23.806  0.00  0.00     0.016 A 
HETATM   39  C   UNK N   1      13.046  19.312  24.265  0.00  0.00     0.018 A 
HETATM   40  C   UNK N   1      13.893  18.477  23.540  0.00  0.00     0.087 A 
HETATM   41  N   UNK N   1      13.454  17.888  22.399  0.00  0.00    -0.374 N 
HETATM   42  C   UNK N   1      12.192  18.081  21.932  0.00  0.00     0.101 A 
ATOM     43  HN  UNK N   1      14.088  17.281  21.877  1.00  0.00     0.164 HD
ENDBRANCH  31  37
ENDBRANCH   2  27
TORSDOF 7
ENDMDL
MODEL 3
REMARK VINA RESULT:      -8.1      3.153     12.523
REMARK  7 active torsions:
REMARK  status: ('A' for Active; 'I' for Inactive)
REMARK    1  A    between atoms: N_3  and  C_17 
REMARK    2  A    between atoms: N_4  and  C_19 
REMARK       I    between atoms: N_5  and  C_25 
REMARK    3  A    between atoms: N_5  and  C_26 
REMARK    4  A    between atoms: N_6  and  C_27 
REMARK       I    between atoms: N_6  and  C_33 
REMARK    5  A    between atoms: C_17  and  C_18 
REMARK    6  A    between atoms: C_24  and  C_25 
REMARK    7  A    between atoms: C_34  and  C_35 
ROOT
HETATM    1  C   UNK N   1      13.475  14.104  19.084  0.00  0.00     0.037 A 
HETATM    2  C   UNK N   1      15.779  13.322  19.501  0.00  0.00     0.057 A 
HETATM    3  C   UNK N   1      14.837  14.379  19.369  0.00  0.00     0.060 A 
HETATM    4  C   UNK N   1      15.333  11.983  19.331  0.00  0.00    -0.035 A 
HETATM    5  C   UNK N   1      13.077  12.767  18.942  0.00  0.00     0.030 A 
HETATM    6  C   UNK N   1      13.985  11.728  19.066  0.00  0.00     0.011 A 
HETATM    7  C   UNK N   1      16.278  10.814  19.439  0.00  0.00     0.050 C 
ENDROOT
BRANCH   1   8
HETATM    8  N   UNK N   1      12.461  15.110  18.892  0.00  0.00    -0.323 N 
HETATM    9  C   UNK N   1      12.262  15.911  17.795  0.00  0.00     0.256 C 
HETATM   10  O   UNK N   1      13.026  15.868  16.845  0.00  0.00    -0.267 OA
HETATM   11  H   UNK N   1      11.854  15.269  19.704  0.00  0.00     0.169 HD
BRANCH   9  12
HETATM   12  C   UNK N   1      11.140  16.912  17.776  0.00  0.00     0.032 A 
HETATM   13  C   UNK N   1      10.230  17.036  18.852  0.00  0.00     0.017 A 
HETATM   14  C   UNK N   1       9.215  17.991  18.823  0.00  0.00     0.010 A 
HETATM   15  C   UNK N   1       9.092  18.862  17.736  0.00  0.00    -0.030 A 
HETATM   16  C   UNK N   1       9.978  18.743  16.654  0.00  0.00     0.010 A 
HETATM   17  C   UNK N   1      10.981  17.766  16.665  0.00  0.00     0.017 A 
BRANCH  15  18
HETATM   18  C   UNK N   1       8.030  19.932  17.739  0.00  0.00     0.311 C 
BRANCH  18  19
HETATM   19  N   UNK N   1       7.702  20.311  19.130  0.00  0.00     0.095 N 
HETATM   20  C   UNK N   1       8.787  21.126  19.721  0.00  0.00     0.292 C 
HETATM   21  C   UNK N   1       8.449  21.469  21.178  0.00  0.00     0.155 C 
HETATM   22  N   UNK N   1       7.153  22.128  21.202  0.00  0.00    -0.356 N 
HETATM   23  C   UNK N   1       6.042  21.410  20.606  0.00  0.00     0.155 C 
HETATM   24  C   UNK N   1       6.417  21.061  19.165  0.00  0.00     0.292 C 
BRANCH  22  25
HETATM   25  C   UNK N   1       6.975  23.377  21.721  0.00  0.00     0.350 C 
HETATM   26  O   UNK N   1       7.929  24.052  22.078  0.00  0.00    -0.284 OA
ENDBRANCH  22  25
ENDBRANCH  18  19
ENDBRANCH  15  18
ENDBRANCH   9  12
ENDBRANCH   1   8
BRANCH   2  27
HETATM   27  N   UNK N   1      17.176  13.567  19.754  0.00  0.00    -0.191 N 
HETATM   28  C   UNK N   1      18.273  13.174  18.933  0.00  0.00     0.683 A 
HETATM   29  N   UNK N   1      18.088  12.713  17.666  0.00  0.00    -0.191 N 
HETATM   30  N   UNK N   1      19.537  13.332  19.409  0.00  0.00    -0.202 N 
HETATM   31  C   UNK N   1      19.138  12.360  16.870  0.00  0.00     0.062 A 
ATOM     32  HN  UNK N   1      17.139  12.630  17.301  1.00  0.00     0.184 HD
HETATM   33  C   UNK N   1      20.443  12.500  17.374  0.00  0.00     0.048 A 
HETATM   34  C   UNK N   1      20.616  13.002  18.660  0.00  0.00     0.108 A 
ATOM     35  HN  UNK N   1      19.674  13.706  20.347  1.00  0.00     0.183 HD
HETATM   36  H   UNK N   1      17.427  14.107  20.594  0.00  0.00     0.184 HD
BRANCH  31  37
HETATM   37  C   UNK N   1      18.868  11.855  15.490  0.00  0.00     0.007 A 
HETATM   38  C   UNK N   1      19.941  11.532  14.640  0.00  0.00     0.016 A 
HETATM   39  C   UNK N   1      19.699  11.054  13.352  0.00  0.00     0.018 A 
HETATM   40  C   UNK N   1      18.386  10.909  12.909  0.00  0.00     0.087 A 
HETATM   41  N   UNK N   1      17.352  11.228  13.730  0.00  0.00    -0.374 N 
HETATM   42  C   UNK N   1      17.556  11.686  14.994  0.00  0.00     0.101 A 
ATOM     43  HN  UNK N   1      16.397  11.120  13.390  1.00  0.00     0.164 HD
ENDBRANCH  31  37
ENDBRANCH   2  27
TORSDOF 7
ENDMDL
MODEL 4
REMARK VINA RESULT:      -6.9      1.568      2.288
REMARK  7 active torsions:
REMARK  status: ('A' for Active; 'I' for Inactive)
REMARK    1  A    between atoms: N_3  and  C_17 
REMARK    2  A    between atoms: N_4  and  C_19 
REMARK       I    between atoms: N_5  and  C_25 
REMARK    3  A    between atoms: N_5  and  C_26 
REMARK    4  A    between atoms: N_6  and  C_27 
REMARK       I    between atoms: N_6  and  C_33 
REMARK    5  A    between atoms: C_17  and  C_18 
REMARK    6  A    between atoms: C_24  and  C_25 
REMARK    7  A    between atoms: C_34  and  C_35 
ROOT
HETATM    1  C   UNK N   1      10.394  18.174  17.841  0.00  0.00     0.037 A 
HETATM    2  C   UNK N   1       8.612  19.777  18.435  0.00  0.00     0.057 A 
HETATM    3  C   UNK N   1       9.497  18.723  18.794  0.00  0.00     0.060 A 
HETATM    4  C   UNK N   1       8.634  20.264  17.100  0.00  0.00    -0.035 A 
HETATM    5  C   UNK N   1      10.392  18.698  16.541  0.00  0.00     0.030 A 
HETATM    6  C   UNK N   1       9.534  19.723  16.177  0.00  0.00     0.011 A 
HETATM    7  C   UNK N   1       7.712  21.366  16.644  0.00  0.00     0.050 C 
ENDROOT
BRANCH   1   8
HETATM    8  N   UNK N   1      11.294  17.080  18.103  0.00  0.00    -0.323 N 
HETATM    9  C   UNK N   1      11.548  15.987  17.312  0.00  0.00     0.256 C 
HETATM   10  O   UNK N   1      10.937  15.816  16.270  0.00  0.00    -0.267 OA
HETATM   11  H   UNK N   1      11.757  17.113  19.018  0.00  0.00     0.169 HD
BRANCH   9  12
HETATM   12  C   UNK N   1      12.531  14.938  17.754  0.00  0.00     0.032 A 
HETATM   13  C   UNK N   1      12.708  13.730  17.038  0.00  0.00     0.017 A 
HETATM   14  C   UNK N   1      13.646  12.786  17.451  0.00  0.00     0.010 A 
HETATM   15  C   UNK N   1      14.447  13.026  18.572  0.00  0.00    -0.030 A 
HETATM   16  C   UNK N   1      14.274  14.212  19.301  0.00  0.00     0.010 A 
HETATM   17  C   UNK N   1      13.314  15.151  18.907  0.00  0.00     0.017 A 
BRANCH  15  18
HETATM   18  C   UNK N   1      15.502  12.027  18.978  0.00  0.00     0.311 C 
BRANCH  18  19
HETATM   19  N   UNK N   1      16.379  11.726  17.826  0.00  0.00     0.095 N 
HETATM   20  C   UNK N   1      16.300  12.801  16.813  0.00  0.00     0.292 C 
HETATM   21  C   UNK N   1      17.180  12.448  15.605  0.00  0.00     0.155 C 
HETATM   22  N   UNK N   1      18.531  12.200  16.084  0.00  0.00    -0.356 N 
HETATM   23  C   UNK N   1      18.688  11.185  17.108  0.00  0.00     0.155 C 
HETATM   24  C   UNK N   1      17.783  11.551  18.285  0.00  0.00     0.292 C 
BRANCH  22  25
HETATM   25  C   UNK N   1      19.609  12.904  15.631  0.00  0.00     0.350 C 
HETATM   26  O   UNK N   1      20.611  12.333  15.228  0.00  0.00    -0.284 OA
ENDBRANCH  22  25
ENDBRANCH  18  19
ENDBRANCH  15  18
ENDBRANCH   9  12
ENDBRANCH   1   8
BRANCH   2  27
HETATM   27  N   UNK N   1       7.665  20.332  19.367  0.00  0.00    -0.191 N 
HETATM   28  C   UNK N   1       7.885  20.597  20.751  0.00  0.00     0.683 A 
HETATM   29  N   UNK N   1       9.132  20.564  21.295  0.00  0.00    -0.191 N 
HETATM   30  N   UNK N   1       6.827  20.958  21.525  0.00  0.00    -0.202 N 
HETATM   31  C   UNK N   1       9.348  20.842  22.612  0.00  0.00     0.062 A 
ATOM     32  HN  UNK N   1       9.927  20.328  20.701  1.00  0.00     0.184 HD
HETATM   33  C   UNK N   1       8.248  21.189  23.418  0.00  0.00     0.048 A 
HETATM   34  C   UNK N   1       6.984  21.248  22.839  0.00  0.00     0.108 A 
ATOM     35  HN  UNK N   1       5.898  21.011  21.108  1.00  0.00     0.183 HD
HETATM   36  H   UNK N   1       6.737  20.601  19.011  0.00  0.00     0.184 HD
BRANCH  31  37
HETATM   37  C   UNK N   1      10.741  20.783  23.151  0.00  0.00     0.007 A 
HETATM   38  C   UNK N   1      11.420  19.552  23.200  0.00  0.00     0.016 A 
HETATM   39  C   UNK N   1      12.723  19.488  23.695  0.00  0.00     0.018 A 
HETATM   40  C   UNK N   1      13.342  20.650  24.152  0.00  0.00     0.087 A 
HETATM   41  N   UNK N   1      12.680  21.834  24.109  0.00  0.00    -0.374 N 
HETATM   42  C   UNK N   1      11.414  21.931  23.622  0.00  0.00     0.101 A 
ATOM     43  HN  UNK N   1      13.146  22.676  24.450  1.00  0.00     0.164 HD
ENDBRANCH  31  37
ENDBRANCH   2  27
TORSDOF 7
ENDMDL
