MODEL 1
REMARK VINA RESULT:      -7.3      0.000      0.000
REMARK  2 active torsions:
REMARK  status: ('A' for Active; 'I' for Inactive)
REMARK    1  A    between atoms: N_3  and  C_9 
REMARK    2  A    between atoms: N_5  and  C_10 
REMARK       I    between atoms: N_6  and  C_15 
REMARK       I    between atoms: N_7  and  C_15 
ROOT
HETATM    1  C   UNK N   1      18.616  11.873  15.581  0.00  0.00    -0.002 A 
HETATM    2  C   UNK N   1      19.990  12.077  15.317  0.00  0.00     0.057 A 
HETATM    3  C   UNK N   1      18.105  12.189  16.856  0.00  0.00     0.111 A 
HETATM    4  C   UNK N   1      20.824  12.601  16.312  0.00  0.00     0.030 A 
HETATM    5  C   UNK N   1      17.687  11.321  14.526  0.00  0.00     0.053 C 
HETATM    6  C   UNK N   1      18.954  12.711  17.843  0.00  0.00     0.037 A 
HETATM    7  C   UNK N   1      20.307  12.917  17.569  0.00  0.00     0.005 A 
ENDROOT
BRANCH   2   8
HETATM    8  N   UNK N   1      20.547  11.727  14.059  0.00  0.00    -0.192 N 
HETATM    9  C   UNK N   1      21.813  11.523  13.885  0.00  0.00     0.669 C 
HETATM   10  N   UNK N   1      22.284  11.154  12.601  0.00  0.00    -0.235 N 
HETATM   11  N   UNK N   1      22.744  11.655  14.958  0.00  0.00    -0.235 N 
HETATM   12  H   UNK N   1      21.627  11.044  11.815  0.00  0.00     0.174 HD
HETATM   13  H   UNK N   1      23.289  10.984  12.445  0.00  0.00     0.174 HD
HETATM   14  H   UNK N   1      22.446  11.921  15.907  0.00  0.00     0.174 HD
HETATM   15  H   UNK N   1      23.746  11.486  14.792  0.00  0.00     0.174 HD
ATOM     16  HN  UNK N   1      19.922  11.633  13.258  1.00  0.00     0.184 HD
ENDBRANCH   2   8
BRANCH   3  17
HETATM   17  N   UNK N   1      16.734  11.987  17.140  0.00  0.00    -0.115 N 
HETATM   18  O   UNK N   1      15.893  12.990  17.029  0.00  0.00    -0.532 OA
HETATM   19  O   UNK N   1      16.388  10.989  17.702  0.00  0.00    -0.532 OA
ENDBRANCH   3  17
TORSDOF 2
ENDMDL
MODEL 2
REMARK VINA RESULT:      -7.3      3.816      6.543
REMARK  2 active torsions:
REMARK  status: ('A' for Active; 'I' for Inactive)
REMARK    1  A    between atoms: N_3  and  C_9 
REMARK    2  A    between atoms: N_5  and  C_10 
REMARK       I    between atoms: N_6  and  C_15 
REMARK       I    between atoms: N_7  and  C_15 
ROOT
HETATM    1  C   UNK N   1      15.648  12.615  17.231  0.00  0.00    -0.002 A 
HETATM    2  C   UNK N   1      14.597  12.532  18.173  0.00  0.00     0.057 A 
HETATM    3  C   UNK N   1      16.709  11.688  17.299  0.00  0.00     0.111 A 
HETATM    4  C   UNK N   1      14.609  11.529  19.150  0.00  0.00     0.030 A 
HETATM    5  C   UNK N   1      15.659  13.676  16.158  0.00  0.00     0.053 C 
HETATM    6  C   UNK N   1      16.707  10.691  18.285  0.00  0.00     0.037 A 
HETATM    7  C   UNK N   1      15.659  10.612  19.205  0.00  0.00     0.005 A 
ENDROOT
BRANCH   2   8
HETATM    8  N   UNK N   1      13.538  13.477  18.163  0.00  0.00    -0.192 N 
HETATM    9  C   UNK N   1      13.499  14.497  18.959  0.00  0.00     0.669 C 
HETATM   10  N   UNK N   1      12.416  15.405  18.868  0.00  0.00    -0.235 N 
HETATM   11  N   UNK N   1      14.526  14.730  19.923  0.00  0.00    -0.235 N 
HETATM   12  H   UNK N   1      11.670  15.260  18.173  0.00  0.00     0.174 HD
HETATM   13  H   UNK N   1      12.371  16.224  19.492  0.00  0.00     0.174 HD
HETATM   14  H   UNK N   1      15.330  14.095  20.023  0.00  0.00     0.174 HD
HETATM   15  H   UNK N   1      14.471  15.549  20.544  0.00  0.00     0.174 HD
ATOM     16  HN  UNK N   1      12.773  13.347  17.500  1.00  0.00     0.184 HD
ENDBRANCH   2   8
BRANCH   3  17
HETATM   17  N   UNK N   1      17.771  11.758  16.368  0.00  0.00    -0.115 N 
HETATM   18  O   UNK N   1      17.603  11.284  15.154  0.00  0.00    -0.532 OA
HETATM   19  O   UNK N   1      18.874  12.020  16.749  0.00  0.00    -0.532 OA
ENDBRANCH   3  17
TORSDOF 2
ENDMDL
MODEL 3
REMARK VINA RESULT:      -7.1     10.801     13.053
REMARK  2 active torsions:
REMARK  status: ('A' for Active; 'I' for Inactive)
REMARK    1  A    between atoms: N_3  and  C_9 
REMARK    2  A    between atoms: N_5  and  C_10 
REMARK       I    between atoms: N_6  and  C_15 
REMARK       I    between atoms: N_7  and  C_15 
ROOT
HETATM    1  C   UNK N   1       9.507  18.546  17.492  0.00  0.00    -0.002 A 
HETATM    2  C   UNK N   1       8.942  19.816  17.236  0.00  0.00     0.057 A 
HETATM    3  C   UNK N   1      10.445  18.012  16.583  0.00  0.00     0.111 A 
HETATM    4  C   UNK N   1       9.325  20.537  16.098  0.00  0.00     0.030 A 
HETATM    5  C   UNK N   1       9.126  17.748  18.715  0.00  0.00     0.053 C 
HETATM    6  C   UNK N   1      10.816  18.746  15.447  0.00  0.00     0.037 A 
HETATM    7  C   UNK N   1      10.259  20.003  15.208  0.00  0.00     0.005 A 
ENDROOT
BRANCH   2   8
HETATM    8  N   UNK N   1       7.961  20.362  18.104  0.00  0.00    -0.192 N 
HETATM    9  C   UNK N   1       8.230  21.276  18.980  0.00  0.00     0.669 C 
HETATM   10  N   UNK N   1       7.187  21.783  19.793  0.00  0.00    -0.235 N 
HETATM   11  N   UNK N   1       9.552  21.789  19.141  0.00  0.00    -0.235 N 
HETATM   12  H   UNK N   1       6.224  21.434  19.686  0.00  0.00     0.174 HD
HETATM   13  H   UNK N   1       7.383  22.515  20.493  0.00  0.00     0.174 HD
HETATM   14  H   UNK N   1      10.340  21.448  18.572  0.00  0.00     0.174 HD
HETATM   15  H   UNK N   1       9.738  22.516  19.846  0.00  0.00     0.174 HD
ATOM     16  HN  UNK N   1       7.003  20.018  18.036  1.00  0.00     0.184 HD
ENDBRANCH   2   8
BRANCH   3  17
HETATM   17  N   UNK N   1      11.018  16.741  16.821  0.00  0.00    -0.115 N 
HETATM   18  O   UNK N   1      12.177  16.655  17.431  0.00  0.00    -0.532 OA
HETATM   19  O   UNK N   1      10.573  15.780  16.264  0.00  0.00    -0.532 OA
ENDBRANCH   3  17
TORSDOF 2
ENDMDL
MODEL 4
REMARK VINA RESULT:      -7.0      2.456      4.970
REMARK  2 active torsions:
REMARK  status: ('A' for Active; 'I' for Inactive)
REMARK    1  A    between atoms: N_3  and  C_9 
REMARK    2  A    between atoms: N_5  and  C_10 
REMARK       I    between atoms: N_6  and  C_15 
REMARK       I    between atoms: N_7  and  C_15 
ROOT
HETATM    1  C   UNK N   1      18.376  11.973  15.935  0.00  0.00    -0.002 A 
HETATM    2  C   UNK N   1      17.945  12.456  17.192  0.00  0.00     0.057 A 
HETATM    3  C   UNK N   1      19.757  11.916  15.654  0.00  0.00     0.111 A 
HETATM    4  C   UNK N   1      18.887  12.859  18.147  0.00  0.00     0.030 A 
HETATM    5  C   UNK N   1      17.388  11.519  14.888  0.00  0.00     0.053 C 
HETATM    6  C   UNK N   1      20.686  12.326  16.621  0.00  0.00     0.037 A 
HETATM    7  C   UNK N   1      20.251  12.793  17.863  0.00  0.00     0.005 A 
ENDROOT
BRANCH   2   8
HETATM    8  N   UNK N   1      16.562  12.570  17.491  0.00  0.00    -0.192 N 
HETATM    9  C   UNK N   1      15.930  11.711  18.224  0.00  0.00     0.669 C 
HETATM   10  N   UNK N   1      14.553  11.912  18.492  0.00  0.00    -0.235 N 
HETATM   11  N   UNK N   1      16.589  10.572  18.774  0.00  0.00    -0.235 N 
HETATM   12  H   UNK N   1      14.061  12.734  18.113  0.00  0.00     0.174 HD
HETATM   13  H   UNK N   1      14.035  11.240  19.078  0.00  0.00     0.174 HD
HETATM   14  H   UNK N   1      17.588  10.387  18.605  0.00  0.00     0.174 HD
HETATM   15  H   UNK N   1      16.062   9.905  19.355  0.00  0.00     0.174 HD
ATOM     16  HN  UNK N   1      16.044  13.362  17.109  1.00  0.00     0.184 HD
ENDBRANCH   2   8
BRANCH   3  17
HETATM   17  N   UNK N   1      20.206  11.440  14.400  0.00  0.00    -0.115 N 
HETATM   18  O   UNK N   1      19.944  10.203  14.044  0.00  0.00    -0.532 OA
HETATM   19  O   UNK N   1      21.014  12.071  13.784  0.00  0.00    -0.532 OA
ENDBRANCH   3  17
TORSDOF 2
ENDMDL
MODEL 5
REMARK VINA RESULT:      -6.8     10.326     12.512
REMARK  2 active torsions:
REMARK  status: ('A' for Active; 'I' for Inactive)
REMARK    1  A    between atoms: N_3  and  C_9 
REMARK    2  A    between atoms: N_5  and  C_10 
REMARK       I    between atoms: N_6  and  C_15 
REMARK       I    between atoms: N_7  and  C_15 
ROOT
HETATM    1  C   UNK N   1       9.758  18.146  17.369  0.00  0.00    -0.002 A 
HETATM    2  C   UNK N   1       8.975  18.882  18.288  0.00  0.00     0.057 A 
HETATM    3  C   UNK N   1      10.631  17.149  17.851  0.00  0.00     0.111 A 
HETATM    4  C   UNK N   1       9.061  18.608  19.659  0.00  0.00     0.030 A 
HETATM    5  C   UNK N   1       9.681  18.407  15.885  0.00  0.00     0.053 C 
HETATM    6  C   UNK N   1      10.707  16.888  19.227  0.00  0.00     0.037 A 
HETATM    7  C   UNK N   1       9.923  17.615  20.125  0.00  0.00     0.005 A 
ENDROOT
BRANCH   2   8
HETATM    8  N   UNK N   1       8.121  19.924  17.841  0.00  0.00    -0.192 N 
HETATM    9  C   UNK N   1       8.465  21.172  17.863  0.00  0.00     0.669 C 
HETATM   10  N   UNK N   1       7.561  22.147  17.378  0.00  0.00    -0.235 N 
HETATM   11  N   UNK N   1       9.738  21.586  18.360  0.00  0.00    -0.235 N 
HETATM   12  H   UNK N   1       6.641  21.869  17.006  0.00  0.00     0.174 HD
HETATM   13  H   UNK N   1       7.820  23.145  17.384  0.00  0.00     0.174 HD
HETATM   14  H   UNK N   1      10.425  20.910  18.723  0.00  0.00     0.174 HD
HETATM   15  H   UNK N   1       9.986  22.585  18.366  0.00  0.00     0.174 HD
ATOM     16  HN  UNK N   1       7.195  19.679  17.489  1.00  0.00     0.184 HD
ENDBRANCH   2   8
BRANCH   3  17
HETATM   17  N   UNK N   1      11.425  16.405  16.948  0.00  0.00    -0.115 N 
HETATM   18  O   UNK N   1      10.869  15.469  16.213  0.00  0.00    -0.532 OA
HETATM   19  O   UNK N   1      12.618  16.459  17.027  0.00  0.00    -0.532 OA
ENDBRANCH   3  17
TORSDOF 2
ENDMDL
MODEL 6
REMARK VINA RESULT:      -6.7      3.454      6.446
REMARK  2 active torsions:
REMARK  status: ('A' for Active; 'I' for Inactive)
REMARK    1  A    between atoms: N_3  and  C_9 
REMARK    2  A    between atoms: N_5  and  C_10 
REMARK       I    between atoms: N_6  and  C_15 
REMARK       I    between atoms: N_7  and  C_15 
ROOT
HETATM    1  C   UNK N   1      16.859  12.780  18.417  0.00  0.00    -0.002 A 
HETATM    2  C   UNK N   1      15.477  12.966  18.188  0.00  0.00     0.057 A 
HETATM    3  C   UNK N   1      17.718  12.571  17.318  0.00  0.00     0.111 A 
HETATM    4  C   UNK N   1      14.975  12.957  16.881  0.00  0.00     0.030 A 
HETATM    5  C   UNK N   1      17.433  12.797  19.813  0.00  0.00     0.053 C 
HETATM    6  C   UNK N   1      17.200  12.562  16.015  0.00  0.00     0.037 A 
HETATM    7  C   UNK N   1      15.834  12.756  15.799  0.00  0.00     0.005 A 
ENDROOT
BRANCH   2   8
HETATM    8  N   UNK N   1      14.577  13.132  19.274  0.00  0.00    -0.192 N 
HETATM    9  C   UNK N   1      13.986  12.138  19.854  0.00  0.00     0.669 C 
HETATM   10  N   UNK N   1      13.119  12.390  20.946  0.00  0.00    -0.235 N 
HETATM   11  N   UNK N   1      14.191  10.794  19.422  0.00  0.00    -0.235 N 
HETATM   12  H   UNK N   1      12.965  13.352  21.280  0.00  0.00     0.174 HD
HETATM   13  H   UNK N   1      12.643  11.609  21.422  0.00  0.00     0.174 HD
HETATM   14  H   UNK N   1      14.812  10.565  18.632  0.00  0.00     0.174 HD
HETATM   15  H   UNK N   1      13.708  10.021  19.901  0.00  0.00     0.174 HD
ATOM     16  HN  UNK N   1      14.388  14.077  19.611  1.00  0.00     0.184 HD
ENDBRANCH   2   8
BRANCH   3  17
HETATM   17  N   UNK N   1      19.103  12.378  17.529  0.00  0.00    -0.115 N 
HETATM   18  O   UNK N   1      19.791  13.280  18.191  0.00  0.00    -0.532 OA
HETATM   19  O   UNK N   1      19.682  11.534  16.909  0.00  0.00    -0.532 OA
ENDBRANCH   3  17
TORSDOF 2
ENDMDL
MODEL 7
REMARK VINA RESULT:      -6.6      2.634      3.557
REMARK  2 active torsions:
REMARK  status: ('A' for Active; 'I' for Inactive)
REMARK    1  A    between atoms: N_3  and  C_9 
REMARK    2  A    between atoms: N_5  and  C_10 
REMARK       I    between atoms: N_6  and  C_15 
REMARK       I    between atoms: N_7  and  C_15 
ROOT
HETATM    1  C   UNK N   1      16.234  12.989  17.051  0.00  0.00    -0.002 A 
HETATM    2  C   UNK N   1      17.402  12.352  17.530  0.00  0.00     0.057 A 
HETATM    3  C   UNK N   1      15.333  13.560  17.973  0.00  0.00     0.111 A 
HETATM    4  C   UNK N   1      17.661  12.305  18.905  0.00  0.00     0.030 A 
HETATM    5  C   UNK N   1      15.932  13.068  15.574  0.00  0.00     0.053 C 
HETATM    6  C   UNK N   1      15.605  13.502  19.348  0.00  0.00     0.037 A 
HETATM    7  C   UNK N   1      16.766  12.879  19.809  0.00  0.00     0.005 A 
ENDROOT
BRANCH   2   8
HETATM    8  N   UNK N   1      18.307  11.727  16.632  0.00  0.00    -0.192 N 
HETATM    9  C   UNK N   1      19.519  12.145  16.453  0.00  0.00     0.669 C 
HETATM   10  N   UNK N   1      20.365  11.450  15.555  0.00  0.00    -0.235 N 
HETATM   11  N   UNK N   1      20.024  13.287  17.144  0.00  0.00    -0.235 N 
HETATM   12  H   UNK N   1      20.023  10.617  15.053  0.00  0.00     0.174 HD
HETATM   13  H   UNK N   1      21.334  11.766  15.403  0.00  0.00     0.174 HD
HETATM   14  H   UNK N   1      19.444  13.822  17.806  0.00  0.00     0.174 HD
HETATM   15  H   UNK N   1      20.992  13.598  16.983  0.00  0.00     0.174 HD
ATOM     16  HN  UNK N   1      17.988  10.914  16.105  1.00  0.00     0.184 HD
ENDBRANCH   2   8
BRANCH   3  17
HETATM   17  N   UNK N   1      14.157  14.197  17.513  0.00  0.00    -0.115 N 
HETATM   18  O   UNK N   1      14.177  15.483  17.246  0.00  0.00    -0.532 OA
HETATM   19  O   UNK N   1      13.107  13.630  17.597  0.00  0.00    -0.532 OA
ENDBRANCH   3  17
TORSDOF 2
ENDMDL
MODEL 8
REMARK VINA RESULT:      -6.6     11.494     13.723
REMARK  2 active torsions:
REMARK  status: ('A' for Active; 'I' for Inactive)
REMARK    1  A    between atoms: N_3  and  C_9 
REMARK    2  A    between atoms: N_5  and  C_10 
REMARK       I    between atoms: N_6  and  C_15 
REMARK       I    between atoms: N_7  and  C_15 
ROOT
HETATM    1  C   UNK N   1       9.082  18.802  18.105  0.00  0.00    -0.002 A 
HETATM    2  C   UNK N   1       8.378  20.016  18.276  0.00  0.00     0.057 A 
HETATM    3  C   UNK N   1       9.560  18.457  16.824  0.00  0.00     0.111 A 
HETATM    4  C   UNK N   1       8.174  20.868  17.183  0.00  0.00     0.030 A 
HETATM    5  C   UNK N   1       9.329  17.867  19.264  0.00  0.00     0.053 C 
HETATM    6  C   UNK N   1       9.346  19.320  15.739  0.00  0.00     0.037 A 
HETATM    7  C   UNK N   1       8.658  20.521  15.921  0.00  0.00     0.005 A 
ENDROOT
BRANCH   2   8
HETATM    8  N   UNK N   1       7.842  20.372  19.541  0.00  0.00    -0.192 N 
HETATM    9  C   UNK N   1       8.362  21.291  20.290  0.00  0.00     0.669 C 
HETATM   10  N   UNK N   1       7.752  21.600  21.530  0.00  0.00    -0.235 N 
HETATM   11  N   UNK N   1       9.533  22.003  19.892  0.00  0.00    -0.235 N 
HETATM   12  H   UNK N   1       6.900  21.105  21.831  0.00  0.00     0.174 HD
HETATM   13  H   UNK N   1       8.150  22.332  22.137  0.00  0.00     0.174 HD
HETATM   14  H   UNK N   1      10.010  21.809  19.000  0.00  0.00     0.174 HD
HETATM   15  H   UNK N   1       9.926  22.729  20.507  0.00  0.00     0.174 HD
ATOM     16  HN  UNK N   1       7.012  19.882  19.875  1.00  0.00     0.184 HD
ENDBRANCH   2   8
BRANCH   3  17
HETATM   17  N   UNK N   1      10.263  17.244  16.633  0.00  0.00    -0.115 N 
HETATM   18  O   UNK N   1      11.572  17.229  16.733  0.00  0.00    -0.532 OA
HETATM   19  O   UNK N   1       9.699  16.305  16.152  0.00  0.00    -0.532 OA
ENDBRANCH   3  17
TORSDOF 2
ENDMDL
MODEL 9
REMARK VINA RESULT:      -6.5      2.937      4.350
REMARK  2 active torsions:
REMARK  status: ('A' for Active; 'I' for Inactive)
REMARK    1  A    between atoms: N_3  and  C_9 
REMARK    2  A    between atoms: N_5  and  C_10 
REMARK       I    between atoms: N_6  and  C_15 
REMARK       I    between atoms: N_7  and  C_15 
ROOT
HETATM    1  C   UNK N   1      16.078  11.875  18.109  0.00  0.00    -0.002 A 
HETATM    2  C   UNK N   1      16.636  12.537  16.992  0.00  0.00     0.057 A 
HETATM    3  C   UNK N   1      14.766  12.195  18.516  0.00  0.00     0.111 A 
HETATM    4  C   UNK N   1      15.883  13.488  16.293  0.00  0.00     0.030 A 
HETATM    5  C   UNK N   1      16.858  10.835  18.877  0.00  0.00     0.053 C 
HETATM    6  C   UNK N   1      14.026  13.152  17.807  0.00  0.00     0.037 A 
HETATM    7  C   UNK N   1      14.583  13.794  16.699  0.00  0.00     0.005 A 
ENDROOT
BRANCH   2   8
HETATM    8  N   UNK N   1      17.969  12.272  16.583  0.00  0.00    -0.192 N 
HETATM    9  C   UNK N   1      18.257  11.658  15.481  0.00  0.00     0.669 C 
HETATM   10  N   UNK N   1      19.616  11.454  15.137  0.00  0.00    -0.235 N 
HETATM   11  N   UNK N   1      17.237  11.186  14.602  0.00  0.00    -0.235 N 
HETATM   12  H   UNK N   1      20.368  11.795  15.753  0.00  0.00     0.174 HD
HETATM   13  H   UNK N   1      19.863  10.970  14.261  0.00  0.00     0.174 HD
HETATM   14  H   UNK N   1      16.237  11.312  14.813  0.00  0.00     0.174 HD
HETATM   15  H   UNK N   1      17.494  10.701  13.731  0.00  0.00     0.174 HD
ATOM     16  HN  UNK N   1      18.734  12.579  17.185  1.00  0.00     0.184 HD
ENDBRANCH   2   8
BRANCH   3  17
HETATM   17  N   UNK N   1      14.193  11.546  19.635  0.00  0.00    -0.115 N 
HETATM   18  O   UNK N   1      13.978  10.251  19.595  0.00  0.00    -0.532 OA
HETATM   19  O   UNK N   1      13.691  12.199  20.503  0.00  0.00    -0.532 OA
ENDBRANCH   3  17
TORSDOF 2
ENDMDL
