MODEL 1
REMARK VINA RESULT:      -5.7      0.000      0.000
REMARK  1 active torsions:
REMARK  status: ('A' for Active; 'I' for Inactive)
REMARK    1  A    between atoms: C_4  and  C_5 
ROOT
HETATM    1  N   UNK N   1      18.445  11.860  15.959  0.00  0.00    -0.374 N 
ATOM      2  HN  UNK N   1      17.450  11.637  15.970  1.00  0.00     0.164 HD
HETATM    3  C   UNK N   1      20.580  11.746  14.866  0.00  0.00     0.025 A 
HETATM    4  C   UNK N   1      21.143  12.466  15.936  0.00  0.00     0.018 A 
HETATM    5  C   UNK N   1      19.203  11.454  14.909  0.00  0.00     0.102 A 
HETATM    6  C   UNK N   1      20.338  12.870  17.002  0.00  0.00     0.018 A 
HETATM    7  C   UNK N   1      18.979  12.555  16.997  0.00  0.00     0.087 A 
ENDROOT
BRANCH   3   8
HETATM    8  C   UNK N   1      21.420  11.306  13.718  0.00  0.00     0.157 C 
HETATM    9  O   UNK N   1      20.896  10.986  12.662  0.00  0.00    -0.293 OA
HETATM   10  C   UNK N   1      22.915  11.248  13.840  0.00  0.00     0.097 C 
ENDBRANCH   3   8
TORSDOF 1
ENDMDL
MODEL 2
REMARK VINA RESULT:      -5.6      2.695      4.375
REMARK  1 active torsions:
REMARK  status: ('A' for Active; 'I' for Inactive)
REMARK    1  A    between atoms: C_4  and  C_5 
ROOT
HETATM    1  N   UNK N   1      19.456  11.821  14.947  0.00  0.00    -0.374 N 
ATOM      2  HN  UNK N   1      19.437  11.491  13.982  1.00  0.00     0.164 HD
HETATM    3  C   UNK N   1      18.333  12.150  17.044  0.00  0.00     0.025 A 
HETATM    4  C   UNK N   1      19.511  12.718  17.562  0.00  0.00     0.018 A 
HETATM    5  C   UNK N   1      18.338  11.703  15.708  0.00  0.00     0.102 A 
HETATM    6  C   UNK N   1      20.645  12.827  16.755  0.00  0.00     0.018 A 
HETATM    7  C   UNK N   1      20.598  12.368  15.438  0.00  0.00     0.087 A 
ENDROOT
BRANCH   3   8
HETATM    8  C   UNK N   1      17.113  12.024  17.888  0.00  0.00     0.157 C 
HETATM    9  O   UNK N   1      16.181  11.326  17.518  0.00  0.00    -0.293 OA
HETATM   10  C   UNK N   1      17.009  12.750  19.198  0.00  0.00     0.097 C 
ENDBRANCH   3   8
TORSDOF 1
ENDMDL
MODEL 3
REMARK VINA RESULT:      -5.5      2.147      3.105
REMARK  1 active torsions:
REMARK  status: ('A' for Active; 'I' for Inactive)
REMARK    1  A    between atoms: C_4  and  C_5 
ROOT
HETATM    1  N   UNK N   1      15.895  12.402  16.269  0.00  0.00    -0.374 N 
ATOM      2  HN  UNK N   1      15.059  12.418  15.686  1.00  0.00     0.164 HD
HETATM    3  C   UNK N   1      18.286  12.273  16.459  0.00  0.00     0.025 A 
HETATM    4  C   UNK N   1      18.159  12.361  17.857  0.00  0.00     0.018 A 
HETATM    5  C   UNK N   1      17.112  12.297  15.679  0.00  0.00     0.102 A 
HETATM    6  C   UNK N   1      16.893  12.469  18.435  0.00  0.00     0.018 A 
HETATM    7  C   UNK N   1      15.763  12.488  17.618  0.00  0.00     0.087 A 
ENDROOT
BRANCH   3   8
HETATM    8  C   UNK N   1      19.625  12.157  15.820  0.00  0.00     0.157 C 
HETATM    9  O   UNK N   1      19.838  11.284  14.993  0.00  0.00    -0.293 OA
HETATM   10  C   UNK N   1      20.731  13.108  16.181  0.00  0.00     0.097 C 
ENDBRANCH   3   8
TORSDOF 1
ENDMDL
MODEL 4
REMARK VINA RESULT:      -5.5      2.208      3.700
REMARK  1 active torsions:
REMARK  status: ('A' for Active; 'I' for Inactive)
REMARK    1  A    between atoms: C_4  and  C_5 
ROOT
HETATM    1  N   UNK N   1      20.499  11.065  13.955  0.00  0.00    -0.374 N 
ATOM      2  HN  UNK N   1      20.627  10.467  13.139  1.00  0.00     0.164 HD
HETATM    3  C   UNK N   1      19.057  11.992  15.637  0.00  0.00     0.025 A 
HETATM    4  C   UNK N   1      20.158  12.689  16.168  0.00  0.00     0.018 A 
HETATM    5  C   UNK N   1      19.265  11.173  14.509  0.00  0.00     0.102 A 
HETATM    6  C   UNK N   1      21.415  12.557  15.576  0.00  0.00     0.018 A 
HETATM    7  C   UNK N   1      21.568  11.734  14.460  0.00  0.00     0.087 A 
ENDROOT
BRANCH   3   8
HETATM    8  C   UNK N   1      17.707  12.117  16.252  0.00  0.00     0.157 C 
HETATM    9  O   UNK N   1      16.709  12.118  15.547  0.00  0.00    -0.293 OA
HETATM   10  C   UNK N   1      17.552  12.245  17.740  0.00  0.00     0.097 C 
ENDBRANCH   3   8
TORSDOF 1
ENDMDL
MODEL 5
REMARK VINA RESULT:      -5.3      2.258      3.914
REMARK  1 active torsions:
REMARK  status: ('A' for Active; 'I' for Inactive)
REMARK    1  A    between atoms: C_4  and  C_5 
ROOT
HETATM    1  N   UNK N   1      22.663  12.058  14.351  0.00  0.00    -0.374 N 
ATOM      2  HN  UNK N   1      23.631  12.370  14.428  1.00  0.00     0.164 HD
HETATM    3  C   UNK N   1      20.440  11.966  15.254  0.00  0.00     0.025 A 
HETATM    4  C   UNK N   1      20.039  11.210  14.137  0.00  0.00     0.018 A 
HETATM    5  C   UNK N   1      21.783  12.382  15.333  0.00  0.00     0.102 A 
HETATM    6  C   UNK N   1      20.967  10.892  13.144  0.00  0.00     0.018 A 
HETATM    7  C   UNK N   1      22.286  11.329  13.269  0.00  0.00     0.087 A 
ENDROOT
BRANCH   3   8
HETATM    8  C   UNK N   1      19.467  12.316  16.325  0.00  0.00     0.157 C 
HETATM    9  O   UNK N   1      18.276  12.095  16.169  0.00  0.00    -0.293 OA
HETATM   10  C   UNK N   1      19.932  12.943  17.608  0.00  0.00     0.097 C 
ENDBRANCH   3   8
TORSDOF 1
ENDMDL
MODEL 6
REMARK VINA RESULT:      -5.1      2.780      4.079
REMARK  1 active torsions:
REMARK  status: ('A' for Active; 'I' for Inactive)
REMARK    1  A    between atoms: C_4  and  C_5 
ROOT
HETATM    1  N   UNK N   1      16.122  12.134  18.819  0.00  0.00    -0.374 N 
ATOM      2  HN  UNK N   1      15.946  11.920  19.801  1.00  0.00     0.164 HD
HETATM    3  C   UNK N   1      17.656  12.301  16.979  0.00  0.00     0.025 A 
HETATM    4  C   UNK N   1      16.592  12.717  16.157  0.00  0.00     0.018 A 
HETATM    5  C   UNK N   1      17.382  12.012  18.330  0.00  0.00     0.102 A 
HETATM    6  C   UNK N   1      15.307  12.834  16.689  0.00  0.00     0.018 A 
HETATM    7  C   UNK N   1      15.089  12.535  18.034  0.00  0.00     0.087 A 
ENDROOT
BRANCH   3   8
HETATM    8  C   UNK N   1      19.034  12.169  16.433  0.00  0.00     0.157 C 
HETATM    9  O   UNK N   1      19.223  11.584  15.378  0.00  0.00    -0.293 OA
HETATM   10  C   UNK N   1      20.208  12.751  17.167  0.00  0.00     0.097 C 
ENDBRANCH   3   8
TORSDOF 1
ENDMDL
MODEL 7
REMARK VINA RESULT:      -5.1      3.197      4.342
REMARK  1 active torsions:
REMARK  status: ('A' for Active; 'I' for Inactive)
REMARK    1  A    between atoms: C_4  and  C_5 
ROOT
HETATM    1  N   UNK N   1      14.780  13.084  17.857  0.00  0.00    -0.374 N 
ATOM      2  HN  UNK N   1      13.823  13.391  17.682  1.00  0.00     0.164 HD
HETATM    3  C   UNK N   1      16.901  12.339  17.013  0.00  0.00     0.025 A 
HETATM    4  C   UNK N   1      17.373  12.250  18.335  0.00  0.00     0.018 A 
HETATM    5  C   UNK N   1      15.575  12.767  16.804  0.00  0.00     0.102 A 
HETATM    6  C   UNK N   1      16.531  12.584  19.398  0.00  0.00     0.018 A 
HETATM    7  C   UNK N   1      15.226  13.002  19.137  0.00  0.00     0.087 A 
ENDROOT
BRANCH   3   8
HETATM    8  C   UNK N   1      17.782  11.988  15.865  0.00  0.00     0.157 C 
HETATM    9  O   UNK N   1      17.309  11.469  14.865  0.00  0.00    -0.293 OA
HETATM   10  C   UNK N   1      19.256  12.265  15.917  0.00  0.00     0.097 C 
ENDBRANCH   3   8
TORSDOF 1
ENDMDL
MODEL 8
REMARK VINA RESULT:      -5.1      3.290      4.991
REMARK  1 active torsions:
REMARK  status: ('A' for Active; 'I' for Inactive)
REMARK    1  A    between atoms: C_4  and  C_5 
ROOT
HETATM    1  N   UNK N   1      19.619  13.017  18.322  0.00  0.00    -0.374 N 
ATOM      2  HN  UNK N   1      20.142  13.350  19.132  1.00  0.00     0.164 HD
HETATM    3  C   UNK N   1      17.545  12.291  17.354  0.00  0.00     0.025 A 
HETATM    4  C   UNK N   1      18.204  12.114  16.124  0.00  0.00     0.018 A 
HETATM    5  C   UNK N   1      18.294  12.752  18.454  0.00  0.00     0.102 A 
HETATM    6  C   UNK N   1      19.568  12.395  16.020  0.00  0.00     0.018 A 
HETATM    7  C   UNK N   1      20.265  12.849  17.139  0.00  0.00     0.087 A 
ENDROOT
BRANCH   3   8
HETATM    8  C   UNK N   1      16.091  11.998  17.488  0.00  0.00     0.157 C 
HETATM    9  O   UNK N   1      15.717  10.876  17.795  0.00  0.00    -0.293 OA
HETATM   10  C   UNK N   1      15.068  13.070  17.249  0.00  0.00     0.097 C 
ENDBRANCH   3   8
TORSDOF 1
ENDMDL
MODEL 9
REMARK VINA RESULT:      -5.0      4.889      6.787
REMARK  1 active torsions:
REMARK  status: ('A' for Active; 'I' for Inactive)
REMARK    1  A    between atoms: C_4  and  C_5 
ROOT
HETATM    1  N   UNK N   1      16.029  12.485  16.230  0.00  0.00    -0.374 N 
ATOM      2  HN  UNK N   1      15.639  12.472  15.288  1.00  0.00     0.164 HD
HETATM    3  C   UNK N   1      15.738  12.846  18.587  0.00  0.00     0.025 A 
HETATM    4  C   UNK N   1      17.092  12.519  18.783  0.00  0.00     0.018 A 
HETATM    5  C   UNK N   1      15.228  12.819  17.274  0.00  0.00     0.102 A 
HETATM    6  C   UNK N   1      17.891  12.179  17.690  0.00  0.00     0.018 A 
HETATM    7  C   UNK N   1      17.337  12.168  16.410  0.00  0.00     0.087 A 
ENDROOT
BRANCH   3   8
HETATM    8  C   UNK N   1      14.868  13.211  19.738  0.00  0.00     0.157 C 
HETATM    9  O   UNK N   1      15.068  14.247  20.354  0.00  0.00    -0.293 OA
HETATM   10  C   UNK N   1      13.737  12.318  20.158  0.00  0.00     0.097 C 
ENDBRANCH   3   8
TORSDOF 1
ENDMDL
