MODEL 1
REMARK VINA RESULT:      -9.9      0.000      0.000
REMARK  4 active torsions:
REMARK  status: ('A' for Active; 'I' for Inactive)
REMARK    1  A    between atoms: N_2  and  C_10 
REMARK       I    between atoms: N_2  and  C_19 
REMARK    2  A    between atoms: N_3  and  C_12 
REMARK       I    between atoms: N_3  and  C_18 
REMARK    3  A    between atoms: C_17  and  C_18 
REMARK    4  A    between atoms: C_23  and  C_26 
ROOT
HETATM    1  C   UNK N   1       9.178  18.380  19.898  0.00  0.00     0.057 A 
HETATM    2  C   UNK N   1       9.025  19.028  18.643  0.00  0.00    -0.035 A 
HETATM    3  C   UNK N   1      10.931  16.951  18.905  0.00  0.00     0.037 A 
HETATM    4  C   UNK N   1      10.132  17.333  20.013  0.00  0.00     0.060 A 
HETATM    5  C   UNK N   1       9.823  18.650  17.562  0.00  0.00     0.011 A 
HETATM    6  C   UNK N   1      10.756  17.631  17.691  0.00  0.00     0.030 A 
HETATM    7  C   UNK N   1       8.023  20.136  18.443  0.00  0.00     0.050 C 
ENDROOT
BRANCH   1   8
HETATM    8  N   UNK N   1       8.339  18.774  21.000  0.00  0.00    -0.191 N 
HETATM    9  C   UNK N   1       8.715  19.583  22.112  0.00  0.00     0.683 A 
HETATM   10  N   UNK N   1       9.889  20.271  22.132  0.00  0.00    -0.191 N 
HETATM   11  N   UNK N   1       7.846  19.718  23.148  0.00  0.00    -0.202 N 
HETATM   12  C   UNK N   1      10.242  21.061  23.186  0.00  0.00     0.062 A 
ATOM     13  HN  UNK N   1      10.522  20.195  21.335  1.00  0.00     0.184 HD
HETATM   14  C   UNK N   1       9.351  21.179  24.268  0.00  0.00     0.048 A 
HETATM   15  C   UNK N   1       8.142  20.494  24.218  0.00  0.00     0.108 A 
ATOM     16  HN  UNK N   1       6.952  19.225  23.119  1.00  0.00     0.183 HD
HETATM   17  H   UNK N   1       7.352  18.480  20.984  0.00  0.00     0.184 HD
BRANCH  12  18
HETATM   18  C   UNK N   1      11.550  21.783  23.152  0.00  0.00     0.007 A 
HETATM   19  C   UNK N   1      11.594  23.138  22.776  0.00  0.00     0.016 A 
HETATM   20  C   UNK N   1      12.810  23.821  22.748  0.00  0.00     0.018 A 
HETATM   21  C   UNK N   1      13.983  23.148  23.083  0.00  0.00     0.087 A 
HETATM   22  N   UNK N   1      13.938  21.838  23.436  0.00  0.00    -0.374 N 
HETATM   23  C   UNK N   1      12.766  21.148  23.483  0.00  0.00     0.101 A 
ATOM     24  HN  UNK N   1      14.806  21.357  23.673  1.00  0.00     0.164 HD
ENDBRANCH  12  18
ENDBRANCH   1   8
BRANCH   3  25
HETATM   25  N   UNK N   1      11.908  15.890  18.922  0.00  0.00    -0.323 N 
HETATM   26  C   UNK N   1      12.786  15.530  17.929  0.00  0.00     0.256 C 
HETATM   27  O   UNK N   1      12.783  16.109  16.856  0.00  0.00    -0.267 OA
HETATM   28  H   UNK N   1      11.903  15.321  19.774  0.00  0.00     0.169 HD
BRANCH  26  29
HETATM   29  C   UNK N   1      13.736  14.374  18.116  0.00  0.00     0.032 A 
HETATM   30  C   UNK N   1      13.597  13.536  19.243  0.00  0.00     0.017 A 
HETATM   31  C   UNK N   1      14.485  12.475  19.459  0.00  0.00     0.007 A 
HETATM   32  C   UNK N   1      15.524  12.224  18.554  0.00  0.00    -0.062 A 
HETATM   33  C   UNK N   1      15.659  13.034  17.422  0.00  0.00     0.007 A 
HETATM   34  C   UNK N   1      16.484  11.098  18.802  0.00  0.00     0.048 C 
HETATM   35  C   UNK N   1      14.780  14.095  17.201  0.00  0.00     0.017 A 
ENDBRANCH  26  29
ENDBRANCH   3  25
TORSDOF 4
ENDMDL
MODEL 2
REMARK VINA RESULT:      -9.7      1.460      2.099
REMARK  4 active torsions:
REMARK  status: ('A' for Active; 'I' for Inactive)
REMARK    1  A    between atoms: N_2  and  C_10 
REMARK       I    between atoms: N_2  and  C_19 
REMARK    2  A    between atoms: N_3  and  C_12 
REMARK       I    between atoms: N_3  and  C_18 
REMARK    3  A    between atoms: C_17  and  C_18 
REMARK    4  A    between atoms: C_23  and  C_26 
ROOT
HETATM    1  C   UNK N   1       9.372  18.394  18.279  0.00  0.00     0.057 A 
HETATM    2  C   UNK N   1       9.637  18.968  17.007  0.00  0.00    -0.035 A 
HETATM    3  C   UNK N   1      11.117  16.703  17.839  0.00  0.00     0.037 A 
HETATM    4  C   UNK N   1      10.116  17.252  18.680  0.00  0.00     0.060 A 
HETATM    5  C   UNK N   1      10.631  18.424  16.191  0.00  0.00     0.011 A 
HETATM    6  C   UNK N   1      11.354  17.314  16.599  0.00  0.00     0.030 A 
HETATM    7  C   UNK N   1       8.876  20.171  16.508  0.00  0.00     0.050 C 
ENDROOT
BRANCH   1   8
HETATM    8  N   UNK N   1       8.335  18.960  19.103  0.00  0.00    -0.191 N 
HETATM    9  C   UNK N   1       8.449  19.352  20.469  0.00  0.00     0.683 A 
HETATM   10  N   UNK N   1       9.657  19.438  21.089  0.00  0.00    -0.191 N 
HETATM   11  N   UNK N   1       7.326  19.710  21.144  0.00  0.00    -0.202 N 
HETATM   12  C   UNK N   1       9.771  19.832  22.390  0.00  0.00     0.062 A 
ATOM     13  HN  UNK N   1      10.502  19.202  20.567  1.00  0.00     0.184 HD
HETATM   14  C   UNK N   1       8.604  20.178  23.094  0.00  0.00     0.048 A 
HETATM   15  C   UNK N   1       7.380  20.115  22.436  0.00  0.00     0.108 A 
ATOM     16  HN  UNK N   1       6.423  19.674  20.669  1.00  0.00     0.183 HD
HETATM   17  H   UNK N   1       7.418  19.139  18.669  0.00  0.00     0.184 HD
BRANCH  12  18
HETATM   18  C   UNK N   1      11.126  19.895  23.018  0.00  0.00     0.007 A 
HETATM   19  C   UNK N   1      11.990  18.788  22.936  0.00  0.00     0.016 A 
HETATM   20  C   UNK N   1      13.259  18.842  23.513  0.00  0.00     0.018 A 
HETATM   21  C   UNK N   1      13.660  19.996  24.183  0.00  0.00     0.087 A 
HETATM   22  N   UNK N   1      12.820  21.059  24.268  0.00  0.00    -0.374 N 
HETATM   23  C   UNK N   1      11.581  21.041  23.706  0.00  0.00     0.101 A 
ATOM     24  HN  UNK N   1      13.126  21.895  24.766  1.00  0.00     0.164 HD
ENDBRANCH  12  18
ENDBRANCH   1   8
BRANCH   3  25
HETATM   25  N   UNK N   1      11.907  15.537  18.153  0.00  0.00    -0.323 N 
HETATM   26  C   UNK N   1      13.159  15.212  17.691  0.00  0.00     0.256 C 
HETATM   27  O   UNK N   1      13.731  15.930  16.889  0.00  0.00    -0.267 OA
HETATM   28  H   UNK N   1      11.442  14.862  18.766  0.00  0.00     0.169 HD
BRANCH  26  29
HETATM   29  C   UNK N   1      13.835  13.933  18.117  0.00  0.00     0.032 A 
HETATM   30  C   UNK N   1      14.816  13.355  17.284  0.00  0.00     0.017 A 
HETATM   31  C   UNK N   1      15.436  12.151  17.638  0.00  0.00     0.007 A 
HETATM   32  C   UNK N   1      15.096  11.502  18.831  0.00  0.00    -0.062 A 
HETATM   33  C   UNK N   1      14.140  12.076  19.677  0.00  0.00     0.007 A 
HETATM   34  C   UNK N   1      15.749  10.202  19.195  0.00  0.00     0.048 C 
HETATM   35  C   UNK N   1      13.515  13.274  19.329  0.00  0.00     0.017 A 
ENDBRANCH  26  29
ENDBRANCH   3  25
TORSDOF 4
ENDMDL
MODEL 3
REMARK VINA RESULT:      -8.2      2.580      4.424
REMARK  4 active torsions:
REMARK  status: ('A' for Active; 'I' for Inactive)
REMARK    1  A    between atoms: N_2  and  C_10 
REMARK       I    between atoms: N_2  and  C_19 
REMARK    2  A    between atoms: N_3  and  C_12 
REMARK       I    between atoms: N_3  and  C_18 
REMARK    3  A    between atoms: C_17  and  C_18 
REMARK    4  A    between atoms: C_23  and  C_26 
ROOT
HETATM    1  C   UNK N   1      11.199  16.612  19.082  0.00  0.00     0.057 A 
HETATM    2  C   UNK N   1      10.255  16.672  18.023  0.00  0.00    -0.035 A 
HETATM    3  C   UNK N   1      12.780  15.478  17.560  0.00  0.00     0.037 A 
HETATM    4  C   UNK N   1      12.459  16.002  18.839  0.00  0.00     0.060 A 
HETATM    5  C   UNK N   1      10.584  16.161  16.766  0.00  0.00     0.011 A 
HETATM    6  C   UNK N   1      11.821  15.576  16.541  0.00  0.00     0.030 A 
HETATM    7  C   UNK N   1       8.893  17.290  18.213  0.00  0.00     0.050 C 
ENDROOT
BRANCH   1   8
HETATM    8  N   UNK N   1      10.839  17.132  20.376  0.00  0.00    -0.191 N 
HETATM    9  C   UNK N   1      10.145  18.348  20.644  0.00  0.00     0.683 A 
HETATM   10  N   UNK N   1       9.537  19.057  19.654  0.00  0.00    -0.191 N 
HETATM   11  N   UNK N   1      10.035  18.770  21.931  0.00  0.00    -0.202 N 
HETATM   12  C   UNK N   1       8.855  20.210  19.910  0.00  0.00     0.062 A 
ATOM     13  HN  UNK N   1       9.591  18.716  18.694  1.00  0.00     0.184 HD
HETATM   14  C   UNK N   1       8.765  20.659  21.240  0.00  0.00     0.048 A 
HETATM   15  C   UNK N   1       9.365  19.905  22.244  0.00  0.00     0.108 A 
ATOM     16  HN  UNK N   1      10.466  18.222  22.676  1.00  0.00     0.183 HD
HETATM   17  H   UNK N   1      11.067  16.564  21.205  0.00  0.00     0.184 HD
BRANCH  12  18
HETATM   18  C   UNK N   1       8.218  20.949  18.778  0.00  0.00     0.007 A 
HETATM   19  C   UNK N   1       8.935  21.157  17.585  0.00  0.00     0.016 A 
HETATM   20  C   UNK N   1       8.345  21.840  16.521  0.00  0.00     0.018 A 
HETATM   21  C   UNK N   1       7.045  22.325  16.653  0.00  0.00     0.087 A 
HETATM   22  N   UNK N   1       6.361  22.130  17.808  0.00  0.00    -0.374 N 
HETATM   23  C   UNK N   1       6.904  21.460  18.859  0.00  0.00     0.101 A 
ATOM     24  HN  UNK N   1       5.413  22.497  17.891  1.00  0.00     0.164 HD
ENDBRANCH  12  18
ENDBRANCH   1   8
BRANCH   3  25
HETATM   25  N   UNK N   1      14.023  14.826  17.226  0.00  0.00    -0.323 N 
HETATM   26  C   UNK N   1      14.437  13.563  17.574  0.00  0.00     0.256 C 
HETATM   27  O   UNK N   1      13.739  12.852  18.276  0.00  0.00    -0.267 OA
HETATM   28  H   UNK N   1      14.679  15.408  16.699  0.00  0.00     0.169 HD
BRANCH  26  29
HETATM   29  C   UNK N   1      15.787  13.045  17.146  0.00  0.00     0.032 A 
HETATM   30  C   UNK N   1      16.765  12.767  18.125  0.00  0.00     0.017 A 
HETATM   31  C   UNK N   1      18.038  12.317  17.755  0.00  0.00     0.007 A 
HETATM   32  C   UNK N   1      18.360  12.128  16.405  0.00  0.00    -0.062 A 
HETATM   33  C   UNK N   1      17.391  12.380  15.427  0.00  0.00     0.007 A 
HETATM   34  C   UNK N   1      19.732  11.664  16.014  0.00  0.00     0.048 C 
HETATM   35  C   UNK N   1      16.122  12.832  15.787  0.00  0.00     0.017 A 
ENDBRANCH  26  29
ENDBRANCH   3  25
TORSDOF 4
ENDMDL
MODEL 4
REMARK VINA RESULT:      -8.1      4.487     11.007
REMARK  4 active torsions:
REMARK  status: ('A' for Active; 'I' for Inactive)
REMARK    1  A    between atoms: N_2  and  C_10 
REMARK       I    between atoms: N_2  and  C_19 
REMARK    2  A    between atoms: N_3  and  C_12 
REMARK       I    between atoms: N_3  and  C_18 
REMARK    3  A    between atoms: C_17  and  C_18 
REMARK    4  A    between atoms: C_23  and  C_26 
ROOT
HETATM    1  C   UNK N   1      15.773  13.274  19.505  0.00  0.00     0.057 A 
HETATM    2  C   UNK N   1      15.330  11.930  19.386  0.00  0.00    -0.035 A 
HETATM    3  C   UNK N   1      13.468  14.036  19.048  0.00  0.00     0.037 A 
HETATM    4  C   UNK N   1      14.831  14.322  19.324  0.00  0.00     0.060 A 
HETATM    5  C   UNK N   1      13.986  11.661  19.123  0.00  0.00     0.011 A 
HETATM    6  C   UNK N   1      13.075  12.693  18.956  0.00  0.00     0.030 A 
HETATM    7  C   UNK N   1      16.277  10.768  19.550  0.00  0.00     0.050 C 
ENDROOT
BRANCH   1   8
HETATM    8  N   UNK N   1      17.166  13.536  19.764  0.00  0.00    -0.191 N 
HETATM    9  C   UNK N   1      18.271  13.166  18.942  0.00  0.00     0.683 A 
HETATM   10  N   UNK N   1      18.096  12.706  17.674  0.00  0.00    -0.191 N 
HETATM   11  N   UNK N   1      19.531  13.343  19.420  0.00  0.00    -0.202 N 
HETATM   12  C   UNK N   1      19.152  12.371  16.878  0.00  0.00     0.062 A 
ATOM     13  HN  UNK N   1      17.149  12.610  17.307  1.00  0.00     0.184 HD
HETATM   14  C   UNK N   1      20.455  12.531  17.385  0.00  0.00     0.048 A 
HETATM   15  C   UNK N   1      20.617  13.033  18.672  0.00  0.00     0.108 A 
ATOM     16  HN  UNK N   1      19.661  13.717  20.361  1.00  0.00     0.183 HD
HETATM   17  H   UNK N   1      17.406  14.074  20.609  0.00  0.00     0.184 HD
BRANCH  12  18
HETATM   18  C   UNK N   1      18.894  11.861  15.498  0.00  0.00     0.007 A 
HETATM   19  C   UNK N   1      19.973  11.578  14.641  0.00  0.00     0.016 A 
HETATM   20  C   UNK N   1      19.741  11.095  13.353  0.00  0.00     0.018 A 
HETATM   21  C   UNK N   1      18.431  10.906  12.917  0.00  0.00     0.087 A 
HETATM   22  N   UNK N   1      17.392  11.189  13.743  0.00  0.00    -0.374 N 
HETATM   23  C   UNK N   1      17.587  11.651  15.008  0.00  0.00     0.101 A 
ATOM     24  HN  UNK N   1      16.439  11.051  13.407  1.00  0.00     0.164 HD
ENDBRANCH  12  18
ENDBRANCH   1   8
BRANCH   3  25
HETATM   25  N   UNK N   1      12.447  15.032  18.830  0.00  0.00    -0.323 N 
HETATM   26  C   UNK N   1      12.326  15.904  17.776  0.00  0.00     0.256 C 
HETATM   27  O   UNK N   1      13.160  15.926  16.887  0.00  0.00    -0.267 OA
HETATM   28  H   UNK N   1      11.761  15.108  19.585  0.00  0.00     0.169 HD
BRANCH  26  29
HETATM   29  C   UNK N   1      11.192  16.897  17.718  0.00  0.00     0.032 A 
HETATM   30  C   UNK N   1      10.926  17.577  16.511  0.00  0.00     0.017 A 
HETATM   31  C   UNK N   1       9.902  18.529  16.437  0.00  0.00     0.007 A 
HETATM   32  C   UNK N   1       9.118  18.816  17.562  0.00  0.00    -0.062 A 
HETATM   33  C   UNK N   1       9.359  18.133  18.759  0.00  0.00     0.007 A 
HETATM   34  C   UNK N   1       8.035  19.852  17.482  0.00  0.00     0.048 C 
HETATM   35  C   UNK N   1      10.380  17.187  18.841  0.00  0.00     0.017 A 
ENDBRANCH  26  29
ENDBRANCH   3  25
TORSDOF 4
ENDMDL
MODEL 5
REMARK VINA RESULT:      -7.1      2.900      4.656
REMARK  4 active torsions:
REMARK  status: ('A' for Active; 'I' for Inactive)
REMARK    1  A    between atoms: N_2  and  C_10 
REMARK       I    between atoms: N_2  and  C_19 
REMARK    2  A    between atoms: N_3  and  C_12 
REMARK       I    between atoms: N_3  and  C_18 
REMARK    3  A    between atoms: C_17  and  C_18 
REMARK    4  A    between atoms: C_23  and  C_26 
ROOT
HETATM    1  C   UNK N   1      10.492  17.139  15.824  0.00  0.00     0.057 A 
HETATM    2  C   UNK N   1       9.903  15.984  15.245  0.00  0.00    -0.035 A 
HETATM    3  C   UNK N   1      12.145  15.689  16.948  0.00  0.00     0.037 A 
HETATM    4  C   UNK N   1      11.611  16.977  16.684  0.00  0.00     0.060 A 
HETATM    5  C   UNK N   1      10.442  14.722  15.506  0.00  0.00     0.011 A 
HETATM    6  C   UNK N   1      11.540  14.580  16.341  0.00  0.00     0.030 A 
HETATM    7  C   UNK N   1       8.704  16.078  14.336  0.00  0.00     0.050 C 
ENDROOT
BRANCH   1   8
HETATM    8  N   UNK N   1       9.916  18.432  15.555  0.00  0.00    -0.191 N 
HETATM    9  C   UNK N   1       9.242  19.276  16.485  0.00  0.00     0.683 A 
HETATM   10  N   UNK N   1       9.270  19.031  17.823  0.00  0.00    -0.191 N 
HETATM   11  N   UNK N   1       8.612  20.388  16.024  0.00  0.00    -0.202 N 
HETATM   12  C   UNK N   1       8.643  19.848  18.717  0.00  0.00     0.062 A 
ATOM     13  HN  UNK N   1       9.775  18.214  18.168  1.00  0.00     0.184 HD
HETATM   14  C   UNK N   1       7.970  20.985  18.235  0.00  0.00     0.048 A 
HETATM   15  C   UNK N   1       7.978  21.238  16.867  0.00  0.00     0.108 A 
ATOM     16  HN  UNK N   1       8.617  20.587  15.023  1.00  0.00     0.183 HD
HETATM   17  H   UNK N   1      10.022  18.819  14.606  0.00  0.00     0.184 HD
BRANCH  12  18
HETATM   18  C   UNK N   1       8.701  19.518  20.174  0.00  0.00     0.007 A 
HETATM   19  C   UNK N   1       7.683  19.965  21.036  0.00  0.00     0.016 A 
HETATM   20  C   UNK N   1       7.726  19.656  22.396  0.00  0.00     0.018 A 
HETATM   21  C   UNK N   1       8.793  18.911  22.896  0.00  0.00     0.087 A 
HETATM   22  N   UNK N   1       9.778  18.490  22.063  0.00  0.00    -0.374 N 
HETATM   23  C   UNK N   1       9.758  18.766  20.731  0.00  0.00     0.101 A 
ATOM     24  HN  UNK N   1      10.555  17.951  22.446  1.00  0.00     0.164 HD
ENDBRANCH  12  18
ENDBRANCH   1   8
BRANCH   3  25
HETATM   25  N   UNK N   1      13.263  15.426  17.821  0.00  0.00    -0.323 N 
HETATM   26  C   UNK N   1      13.933  14.241  18.007  0.00  0.00     0.256 C 
HETATM   27  O   UNK N   1      13.581  13.230  17.422  0.00  0.00    -0.267 OA
HETATM   28  H   UNK N   1      13.553  16.224  18.393  0.00  0.00     0.169 HD
BRANCH  26  29
HETATM   29  C   UNK N   1      15.080  14.143  18.980  0.00  0.00     0.032 A 
HETATM   30  C   UNK N   1      14.987  14.789  20.231  0.00  0.00     0.017 A 
HETATM   31  C   UNK N   1      16.050  14.744  21.141  0.00  0.00     0.007 A 
HETATM   32  C   UNK N   1      17.224  14.047  20.826  0.00  0.00    -0.062 A 
HETATM   33  C   UNK N   1      17.320  13.385  19.597  0.00  0.00     0.007 A 
HETATM   34  C   UNK N   1      18.368  14.019  21.796  0.00  0.00     0.048 C 
HETATM   35  C   UNK N   1      16.267  13.429  18.684  0.00  0.00     0.017 A 
ENDBRANCH  26  29
ENDBRANCH   3  25
TORSDOF 4
ENDMDL
