MODEL 1
REMARK VINA RESULT:     -10.3      0.000      0.000
REMARK  7 active torsions:
REMARK  status: ('A' for Active; 'I' for Inactive)
REMARK    1  A    between atoms: O_2  and  N_12 
REMARK    2  A    between atoms: N_4  and  C_17 
REMARK       I    between atoms: N_6  and  C_25 
REMARK    3  A    between atoms: N_6  and  C_26 
REMARK    4  A    between atoms: N_7  and  C_27 
REMARK       I    between atoms: N_7  and  C_33 
REMARK    5  A    between atoms: C_17  and  C_19 
REMARK    6  A    between atoms: C_24  and  C_25 
REMARK    7  A    between atoms: C_34  and  C_35 
ROOT
HETATM    1  C   UNK N   1      10.772  17.860  17.075  0.00  0.00     0.037 A 
HETATM    2  C   UNK N   1       8.931  19.256  17.944  0.00  0.00     0.057 A 
HETATM    3  C   UNK N   1       9.783  18.123  18.055  0.00  0.00     0.060 A 
HETATM    4  C   UNK N   1       9.101  20.130  16.838  0.00  0.00    -0.035 A 
HETATM    5  C   UNK N   1      10.890  18.740  15.991  0.00  0.00     0.030 A 
HETATM    6  C   UNK N   1      10.070  19.851  15.871  0.00  0.00     0.011 A 
HETATM    7  C   UNK N   1       8.249  21.363  16.668  0.00  0.00     0.050 C 
ENDROOT
BRANCH   1   8
HETATM    8  N   UNK N   1      11.700  16.760  17.130  0.00  0.00    -0.323 N 
HETATM    9  C   UNK N   1      12.125  16.069  18.236  0.00  0.00     0.256 C 
HETATM   10  O   UNK N   1      11.668  16.313  19.340  0.00  0.00    -0.267 OA
HETATM   11  H   UNK N   1      12.036  16.436  16.216  0.00  0.00     0.169 HD
BRANCH   9  12
HETATM   12  C   UNK N   1      13.110  14.941  18.097  0.00  0.00     0.032 A 
HETATM   13  C   UNK N   1      13.117  13.846  18.991  0.00  0.00     0.017 A 
HETATM   14  C   UNK N   1      14.061  12.831  18.866  0.00  0.00     0.010 A 
HETATM   15  C   UNK N   1      15.035  12.887  17.865  0.00  0.00    -0.030 A 
HETATM   16  C   UNK N   1      15.029  13.956  16.956  0.00  0.00     0.010 A 
HETATM   17  C   UNK N   1      14.066  14.967  17.062  0.00  0.00     0.017 A 
BRANCH  15  18
HETATM   18  C   UNK N   1      16.090  11.810  17.793  0.00  0.00     0.311 C 
BRANCH  18  19
HETATM   19  N   UNK N   1      17.339  12.326  17.192  0.00  0.00     0.096 N 
HETATM   20  C   UNK N   1      18.470  12.168  18.125  0.00  0.00     0.303 C 
HETATM   21  C   UNK N   1      19.723  12.825  17.537  0.00  0.00     0.302 C 
HETATM   22  N   UNK N   1      20.047  12.216  16.234  0.00  0.00     0.087 N 
HETATM   23  C   UNK N   1      18.913  12.365  15.304  0.00  0.00     0.302 C 
HETATM   24  C   UNK N   1      21.257  12.831  15.669  0.00  0.00     0.310 C 
HETATM   25  C   UNK N   1      17.665  11.698  15.895  0.00  0.00     0.303 C 
ENDBRANCH  18  19
ENDBRANCH  15  18
ENDBRANCH   9  12
ENDBRANCH   1   8
BRANCH   2  26
HETATM   26  N   UNK N   1       7.939  19.563  18.940  0.00  0.00    -0.191 N 
HETATM   27  C   UNK N   1       8.177  19.843  20.318  0.00  0.00     0.683 A 
HETATM   28  N   UNK N   1       9.389  19.611  20.894  0.00  0.00    -0.191 N 
HETATM   29  N   UNK N   1       7.149  20.293  21.084  0.00  0.00    -0.202 N 
HETATM   30  C   UNK N   1       9.616  19.864  22.214  0.00  0.00     0.062 A 
ATOM     31  HN  UNK N   1      10.146  19.238  20.322  1.00  0.00     0.184 HD
HETATM   32  C   UNK N   1       8.560  20.354  22.999  0.00  0.00     0.048 A 
HETATM   33  C   UNK N   1       7.317  20.552  22.404  0.00  0.00     0.108 A 
ATOM     34  HN  UNK N   1       6.233  20.436  20.659  1.00  0.00     0.183 HD
HETATM   35  H   UNK N   1       6.949  19.555  18.657  0.00  0.00     0.184 HD
BRANCH  30  36
HETATM   36  C   UNK N   1      10.974  19.603  22.781  0.00  0.00     0.009 A 
HETATM   37  C   UNK N   1      11.730  18.508  22.322  0.00  0.00     0.136 A 
HETATM   38  N   UNK N   1      12.968  18.253  22.833  0.00  0.00    -0.246 N 
HETATM   39  C   UNK N   1      13.516  19.054  23.787  0.00  0.00     0.122 A 
HETATM   40  C   UNK N   1      12.812  20.157  24.268  0.00  0.00     0.021 A 
HETATM   41  C   UNK N   1      11.539  20.430  23.772  0.00  0.00     0.016 A 
BRANCH  38  42
HETATM   42  O   UNK N   1      13.653  17.202  22.392  0.00  0.00    -0.284 OA
ATOM     43  HO  UNK N   1      13.820  16.475  22.979  1.00  0.00     0.245 HD
ENDBRANCH  38  42
ENDBRANCH  30  36
ENDBRANCH   2  26
TORSDOF 7
ENDMDL
MODEL 2
REMARK VINA RESULT:      -8.6      1.777      2.214
REMARK  7 active torsions:
REMARK  status: ('A' for Active; 'I' for Inactive)
REMARK    1  A    between atoms: O_2  and  N_12 
REMARK    2  A    between atoms: N_4  and  C_17 
REMARK       I    between atoms: N_6  and  C_25 
REMARK    3  A    between atoms: N_6  and  C_26 
REMARK    4  A    between atoms: N_7  and  C_27 
REMARK       I    between atoms: N_7  and  C_33 
REMARK    5  A    between atoms: C_17  and  C_19 
REMARK    6  A    between atoms: C_24  and  C_25 
REMARK    7  A    between atoms: C_34  and  C_35 
ROOT
HETATM    1  C   UNK N   1      11.492  16.570  17.720  0.00  0.00     0.037 A 
HETATM    2  C   UNK N   1       9.502  17.468  18.871  0.00  0.00     0.057 A 
HETATM    3  C   UNK N   1      10.549  16.512  18.776  0.00  0.00     0.060 A 
HETATM    4  C   UNK N   1       9.426  18.495  17.893  0.00  0.00    -0.035 A 
HETATM    5  C   UNK N   1      11.366  17.590  16.767  0.00  0.00     0.030 A 
HETATM    6  C   UNK N   1      10.354  18.532  16.848  0.00  0.00     0.011 A 
HETATM    7  C   UNK N   1       8.356  19.556  17.942  0.00  0.00     0.050 C 
ENDROOT
BRANCH   1   8
HETATM    8  N   UNK N   1      12.605  15.668  17.571  0.00  0.00    -0.323 N 
HETATM    9  C   UNK N   1      13.264  14.971  18.553  0.00  0.00     0.256 C 
HETATM   10  O   UNK N   1      12.890  15.020  19.713  0.00  0.00    -0.267 OA
HETATM   11  H   UNK N   1      12.894  15.501  16.601  0.00  0.00     0.169 HD
BRANCH   9  12
HETATM   12  C   UNK N   1      14.416  14.071  18.205  0.00  0.00     0.032 A 
HETATM   13  C   UNK N   1      14.685  13.691  16.870  0.00  0.00     0.017 A 
HETATM   14  C   UNK N   1      15.736  12.827  16.574  0.00  0.00     0.010 A 
HETATM   15  C   UNK N   1      16.532  12.301  17.595  0.00  0.00    -0.030 A 
HETATM   16  C   UNK N   1      16.292  12.685  18.923  0.00  0.00     0.010 A 
HETATM   17  C   UNK N   1      15.252  13.573  19.225  0.00  0.00     0.017 A 
BRANCH  15  18
HETATM   18  C   UNK N   1      17.620  11.312  17.254  0.00  0.00     0.311 C 
BRANCH  18  19
HETATM   19  N   UNK N   1      18.645  11.928  16.383  0.00  0.00     0.096 N 
HETATM   20  C   UNK N   1      19.796  12.392  17.180  0.00  0.00     0.303 C 
HETATM   21  C   UNK N   1      20.783  13.140  16.279  0.00  0.00     0.302 C 
HETATM   22  N   UNK N   1      21.239  12.258  15.189  0.00  0.00     0.087 N 
HETATM   23  C   UNK N   1      20.088  11.786  14.398  0.00  0.00     0.302 C 
HETATM   24  C   UNK N   1      22.199  12.963  14.327  0.00  0.00     0.310 C 
HETATM   25  C   UNK N   1      19.109  11.030  15.304  0.00  0.00     0.303 C 
ENDBRANCH  18  19
ENDBRANCH  15  18
ENDBRANCH   9  12
ENDBRANCH   1   8
BRANCH   2  26
HETATM   26  N   UNK N   1       8.549  17.450  19.949  0.00  0.00    -0.191 N 
HETATM   27  C   UNK N   1       8.657  18.146  21.189  0.00  0.00     0.683 A 
HETATM   28  N   UNK N   1       9.822  18.732  21.580  0.00  0.00    -0.191 N 
HETATM   29  N   UNK N   1       7.586  18.169  22.026  0.00  0.00    -0.202 N 
HETATM   30  C   UNK N   1       9.934  19.386  22.770  0.00  0.00     0.062 A 
ATOM     31  HN  UNK N   1      10.633  18.679  20.964  1.00  0.00     0.184 HD
HETATM   32  C   UNK N   1       8.817  19.432  23.622  0.00  0.00     0.048 A 
HETATM   33  C   UNK N   1       7.644  18.798  23.225  0.00  0.00     0.108 A 
ATOM     34  HN  UNK N   1       6.723  17.702  21.746  1.00  0.00     0.183 HD
HETATM   35  H   UNK N   1       7.714  16.857  19.848  0.00  0.00     0.184 HD
BRANCH  30  36
HETATM   36  C   UNK N   1      11.236  20.023  23.132  0.00  0.00     0.009 A 
HETATM   37  C   UNK N   1      11.306  21.415  23.333  0.00  0.00     0.136 A 
HETATM   38  N   UNK N   1      12.487  22.013  23.659  0.00  0.00    -0.246 N 
HETATM   39  C   UNK N   1      13.627  21.284  23.815  0.00  0.00     0.122 A 
HETATM   40  C   UNK N   1      13.608  19.902  23.636  0.00  0.00     0.021 A 
HETATM   41  C   UNK N   1      12.416  19.270  23.289  0.00  0.00     0.016 A 
BRANCH  38  42
HETATM   42  O   UNK N   1      12.528  23.331  23.828  0.00  0.00    -0.284 OA
ATOM     43  HO  UNK N   1      12.084  23.895  23.206  1.00  0.00     0.245 HD
ENDBRANCH  38  42
ENDBRANCH  30  36
ENDBRANCH   2  26
TORSDOF 7
ENDMDL
MODEL 3
REMARK VINA RESULT:      -8.5      2.689     11.706
REMARK  7 active torsions:
REMARK  status: ('A' for Active; 'I' for Inactive)
REMARK    1  A    between atoms: O_2  and  N_12 
REMARK    2  A    between atoms: N_4  and  C_17 
REMARK       I    between atoms: N_6  and  C_25 
REMARK    3  A    between atoms: N_6  and  C_26 
REMARK    4  A    between atoms: N_7  and  C_27 
REMARK       I    between atoms: N_7  and  C_33 
REMARK    5  A    between atoms: C_17  and  C_19 
REMARK    6  A    between atoms: C_24  and  C_25 
REMARK    7  A    between atoms: C_34  and  C_35 
ROOT
HETATM    1  C   UNK N   1      13.249  13.942  18.818  0.00  0.00     0.037 A 
HETATM    2  C   UNK N   1      15.480  13.056  19.395  0.00  0.00     0.057 A 
HETATM    3  C   UNK N   1      14.593  14.153  19.215  0.00  0.00     0.060 A 
HETATM    4  C   UNK N   1      14.988  11.740  19.184  0.00  0.00    -0.035 A 
HETATM    5  C   UNK N   1      12.814  12.628  18.603  0.00  0.00     0.030 A 
HETATM    6  C   UNK N   1      13.665  11.548  18.780  0.00  0.00     0.011 A 
HETATM    7  C   UNK N   1      15.864  10.529  19.378  0.00  0.00     0.050 C 
ENDROOT
BRANCH   1   8
HETATM    8  N   UNK N   1      12.276  14.991  18.651  0.00  0.00    -0.323 N 
HETATM    9  C   UNK N   1      12.228  15.950  17.671  0.00  0.00     0.256 C 
HETATM   10  O   UNK N   1      13.036  15.952  16.757  0.00  0.00    -0.267 OA
HETATM   11  H   UNK N   1      11.506  14.972  19.329  0.00  0.00     0.169 HD
BRANCH   9  12
HETATM   12  C   UNK N   1      11.127  16.974  17.662  0.00  0.00     0.032 A 
HETATM   13  C   UNK N   1      10.950  17.865  16.578  0.00  0.00     0.017 A 
HETATM   14  C   UNK N   1       9.947  18.829  16.607  0.00  0.00     0.010 A 
HETATM   15  C   UNK N   1       9.109  18.949  17.719  0.00  0.00    -0.030 A 
HETATM   16  C   UNK N   1       9.257  18.059  18.793  0.00  0.00     0.010 A 
HETATM   17  C   UNK N   1      10.249  17.070  18.760  0.00  0.00     0.017 A 
BRANCH  15  18
HETATM   18  C   UNK N   1       8.074  20.048  17.755  0.00  0.00     0.311 C 
BRANCH  18  19
HETATM   19  N   UNK N   1       7.864  20.536  19.135  0.00  0.00     0.096 N 
HETATM   20  C   UNK N   1       8.909  21.507  19.509  0.00  0.00     0.303 C 
HETATM   21  C   UNK N   1       8.749  21.901  20.981  0.00  0.00     0.302 C 
HETATM   22  N   UNK N   1       7.412  22.479  21.206  0.00  0.00     0.087 N 
HETATM   23  C   UNK N   1       6.366  21.512  20.823  0.00  0.00     0.302 C 
HETATM   24  C   UNK N   1       7.254  22.873  22.613  0.00  0.00     0.310 C 
HETATM   25  C   UNK N   1       6.527  21.130  19.347  0.00  0.00     0.303 C 
ENDBRANCH  18  19
ENDBRANCH  15  18
ENDBRANCH   9  12
ENDBRANCH   1   8
BRANCH   2  26
HETATM   26  N   UNK N   1      16.841  13.239  19.826  0.00  0.00    -0.191 N 
HETATM   27  C   UNK N   1      18.008  13.141  19.014  0.00  0.00     0.683 A 
HETATM   28  N   UNK N   1      17.963  12.618  17.758  0.00  0.00    -0.191 N 
HETATM   29  N   UNK N   1      19.205  13.521  19.535  0.00  0.00    -0.202 N 
HETATM   30  C   UNK N   1      19.079  12.510  16.983  0.00  0.00     0.062 A 
ATOM     31  HN  UNK N   1      17.068  12.300  17.386  1.00  0.00     0.184 HD
HETATM   32  C   UNK N   1      20.311  12.928  17.514  0.00  0.00     0.048 A 
HETATM   33  C   UNK N   1      20.348  13.427  18.813  0.00  0.00     0.108 A 
ATOM     34  HN  UNK N   1      19.243  13.882  20.488  1.00  0.00     0.183 HD
HETATM   35  H   UNK N   1      17.012  13.430  20.823  0.00  0.00     0.184 HD
BRANCH  30  36
HETATM   36  C   UNK N   1      18.958  11.944  15.606  0.00  0.00     0.009 A 
HETATM   37  C   UNK N   1      20.118  11.651  14.862  0.00  0.00     0.136 A 
HETATM   38  N   UNK N   1      20.026  11.139  13.602  0.00  0.00    -0.246 N 
HETATM   39  C   UNK N   1      18.816  10.881  13.032  0.00  0.00     0.122 A 
HETATM   40  C   UNK N   1      17.640  11.144  13.732  0.00  0.00     0.021 A 
HETATM   41  C   UNK N   1      17.707  11.680  15.015  0.00  0.00     0.016 A 
BRANCH  38  42
HETATM   42  O   UNK N   1      21.136  10.886  12.916  0.00  0.00    -0.284 OA
ATOM     43  HO  UNK N   1      21.979  11.110  13.294  1.00  0.00     0.245 HD
ENDBRANCH  38  42
ENDBRANCH  30  36
ENDBRANCH   2  26
TORSDOF 7
ENDMDL
