MODEL 1
REMARK VINA RESULT:     -10.6      0.000      0.000
REMARK  6 active torsions:
REMARK  status: ('A' for Active; 'I' for Inactive)
REMARK    1  A    between atoms: C5_3  and  C7_8 
REMARK       I    between atoms: C9_13  and  N13_16 
REMARK    2  A    between atoms: C14_17  and  N13_16 
REMARK    3  A    between atoms: C16_21  and  N21_23 
REMARK       I    between atoms: C22_24  and  N21_23 
REMARK    4  A    between atoms: C22_24  and  C23_25 
REMARK    5  A    between atoms: C27_28  and  C46_31 
REMARK    6  A    between atoms: C46_31  and  N48_32 
ROOT
HETATM    1  C14 STI A 600      16.118  12.661  18.221  1.00 42.83     0.057 A 
HETATM    2  C19 STI A 600      15.443  11.697  18.998  1.00 42.81    -0.035 A 
HETATM    3  C18 STI A 600      14.153  12.006  19.398  1.00 45.14     0.011 A 
HETATM    4  C17 STI A 600      13.525  13.239  19.040  1.00 42.64     0.030 A 
HETATM    5  C16 STI A 600      14.185  14.171  18.278  1.00 41.64     0.037 A 
HETATM    6  C15 STI A 600      15.486  13.865  17.853  1.00 40.75     0.060 A 
HETATM    7  C20 STI A 600      16.037  10.371  19.413  1.00 40.20     0.050 C 
ENDROOT
BRANCH   5   8
HETATM    8  N21 STI A 600      13.429  15.350  17.998  1.00 40.36    -0.323 N 
HETATM    9  C22 STI A 600      12.312  15.298  17.237  1.00 38.78     0.256 C 
HETATM   10  O29 STI A 600      11.968  14.323  16.568  1.00 40.62    -0.267 OA
HETATM   11  H21 STI A 600      13.735  16.237  18.373  1.00  0.00     0.169 HD
BRANCH   9  12
HETATM   12  C23 STI A 600      11.433  16.496  17.209  1.00 36.59     0.032 A 
HETATM   13  C25 STI A 600      11.278  17.212  15.989  1.00 34.88     0.017 A 
HETATM   14  C26 STI A 600      10.460  18.389  15.880  1.00 33.94     0.010 A 
HETATM   15  C27 STI A 600       9.782  18.838  17.029  1.00 35.29    -0.033 A 
HETATM   16  C28 STI A 600       9.926  18.131  18.257  1.00 35.22     0.010 A 
HETATM   17  C29 STI A 600      10.746  16.963  18.378  1.00 34.82     0.017 A 
BRANCH  15  18
HETATM   18  C46 STI A 600       8.945  20.058  16.915  1.00 34.30     0.273 C 
BRANCH  18  19
HETATM   19  N48 STI A 600       8.382  20.474  18.187  1.00 33.42    -0.064 N 
HETATM   20  C49 STI A 600       6.953  20.873  18.056  1.00 30.94     0.263 C 
HETATM   21  C50 STI A 600       6.363  21.157  19.460  1.00 32.11     0.262 C 
HETATM   22  N51 STI A 600       7.192  22.168  20.093  1.00 35.38    -0.072 N 
HETATM   23  C52 STI A 600       8.650  21.833  20.275  1.00 31.38     0.262 C 
HETATM   24  C54 STI A 600       6.680  22.518  21.393  1.00 32.34     0.269 C 
HETATM   25  H51 STI A 600       7.145  22.998  19.518  1.00  0.00     0.279 HD
HETATM   26  C53 STI A 600       9.252  21.445  18.871  1.00 26.21     0.263 C 
HETATM   27  H48 STI A 600       8.383  19.648  18.769  1.00  0.00     0.280 HD
ENDBRANCH  18  19
ENDBRANCH  15  18
ENDBRANCH   9  12
ENDBRANCH   5   8
BRANCH   1  28
HETATM   28  N13 STI A 600      17.396  12.444  17.778  1.00 40.09    -0.191 N 
HETATM   29  C9  STI A 600      17.581  12.052  16.458  1.00 38.62     0.683 A 
HETATM   30  N8  STI A 600      18.863  12.060  16.053  1.00 39.94    -0.191 N 
HETATM   31  N10 STI A 600      16.612  11.683  15.637  1.00 39.49    -0.202 N 
HETATM   32  C7  STI A 600      19.167  11.656  14.776  1.00 38.16     0.062 A 
ATOM     33  H8  STI A 600      19.603  12.362  16.688  1.00  0.00     0.184 HD
HETATM   34  C12 STI A 600      18.208  11.277  13.924  1.00 38.07     0.048 A 
HETATM   35  C11 STI A 600      16.881  11.299  14.391  1.00 38.38     0.108 A 
ATOM     36  H10 STI A 600      15.646  11.694  15.962  1.00  0.00     0.183 HD
HETATM   37  H13 STI A 600      18.185  12.567  18.396  1.00  0.00     0.184 HD
BRANCH  32  38
HETATM   38  C5  STI A 600      20.647  11.706  14.389  1.00 40.15     0.007 A 
HETATM   39  C4  STI A 600      21.051  11.294  13.115  1.00 38.69     0.101 A 
HETATM   40  N3  STI A 600      22.351  11.313  12.731  1.00 38.16    -0.374 N 
HETATM   41  C2  STI A 600      23.273  11.740  13.596  1.00 37.87     0.087 A 
ATOM     42  H3  STI A 600      22.620  11.006  11.796  1.00  0.00     0.164 HD
HETATM   43  C1  STI A 600      23.011  12.173  14.892  1.00 37.27     0.018 A 
HETATM   44  C6  STI A 600      21.666  12.165  15.268  1.00 39.60     0.016 A 
ENDBRANCH  32  38
ENDBRANCH   1  28
TORSDOF 6
ENDMDL
MODEL 2
REMARK VINA RESULT:      -8.6      2.234     13.074
REMARK  6 active torsions:
REMARK  status: ('A' for Active; 'I' for Inactive)
REMARK    1  A    between atoms: C5_3  and  C7_8 
REMARK       I    between atoms: C9_13  and  N13_16 
REMARK    2  A    between atoms: C14_17  and  N13_16 
REMARK    3  A    between atoms: C16_21  and  N21_23 
REMARK       I    between atoms: C22_24  and  N21_23 
REMARK    4  A    between atoms: C22_24  and  C23_25 
REMARK    5  A    between atoms: C27_28  and  C46_31 
REMARK    6  A    between atoms: C46_31  and  N48_32 
ROOT
HETATM    1  C14 STI A 600      10.138  17.274  17.715  1.00 42.83     0.057 A 
HETATM    2  C19 STI A 600       9.900  17.498  16.343  1.00 42.81    -0.035 A 
HETATM    3  C18 STI A 600      10.874  17.064  15.458  1.00 45.14     0.011 A 
HETATM    4  C17 STI A 600      12.065  16.413  15.905  1.00 42.64     0.030 A 
HETATM    5  C16 STI A 600      12.288  16.191  17.242  1.00 41.64     0.037 A 
HETATM    6  C15 STI A 600      11.303  16.612  18.148  1.00 40.75     0.060 A 
HETATM    7  C20 STI A 600       8.666  18.174  15.793  1.00 40.20     0.050 C 
ENDROOT
BRANCH   5   8
HETATM    8  N21 STI A 600      13.519  15.528  17.536  1.00 40.36    -0.323 N 
HETATM    9  C22 STI A 600      13.596  14.178  17.550  1.00 38.78     0.256 C 
HETATM   10  O29 STI A 600      12.624  13.423  17.526  1.00 40.62    -0.267 OA
HETATM   11  H21 STI A 600      14.343  16.077  17.736  1.00  0.00     0.169 HD
BRANCH   9  12
HETATM   12  C23 STI A 600      14.947  13.559  17.594  1.00 36.59     0.032 A 
HETATM   13  C25 STI A 600      15.589  13.210  16.373  1.00 34.88     0.017 A 
HETATM   14  C26 STI A 600      16.886  12.594  16.328  1.00 33.94     0.010 A 
HETATM   15  C27 STI A 600      17.545  12.339  17.546  1.00 35.29    -0.033 A 
HETATM   16  C28 STI A 600      16.916  12.684  18.776  1.00 35.22     0.010 A 
HETATM   17  C29 STI A 600      15.620  13.289  18.832  1.00 34.82     0.017 A 
BRANCH  15  18
HETATM   18  C46 STI A 600      18.881  11.695  17.497  1.00 34.30     0.273 C 
BRANCH  18  19
HETATM   19  N48 STI A 600      19.560  11.904  16.232  1.00 33.42    -0.064 N 
HETATM   20  C49 STI A 600      19.391  10.744  15.313  1.00 30.94     0.263 C 
HETATM   21  C50 STI A 600      19.999  11.083  13.930  1.00 32.11     0.262 C 
HETATM   22  N51 STI A 600      21.386  11.462  14.137  1.00 35.38    -0.072 N 
HETATM   23  C52 STI A 600      21.640  12.638  15.043  1.00 31.38     0.262 C 
HETATM   24  C54 STI A 600      22.036  11.754  12.885  1.00 32.34     0.269 C 
HETATM   25  H51 STI A 600      21.858  10.665  14.542  1.00  0.00     0.279 HD
HETATM   26  C53 STI A 600      20.946  12.359  16.431  1.00 26.21     0.263 C 
HETATM   27  H48 STI A 600      19.080  12.675  15.789  1.00  0.00     0.280 HD
ENDBRANCH  18  19
ENDBRANCH  15  18
ENDBRANCH   9  12
ENDBRANCH   5   8
BRANCH   1  28
HETATM   28  N13 STI A 600       9.231  17.666  18.664  1.00 40.09    -0.191 N 
HETATM   29  C9  STI A 600       9.706  18.081  19.902  1.00 38.62     0.683 A 
HETATM   30  N8  STI A 600       8.773  18.638  20.694  1.00 39.94    -0.191 N 
HETATM   31  N10 STI A 600      10.956  17.951  20.313  1.00 39.49    -0.202 N 
HETATM   32  C7  STI A 600       9.123  19.054  21.955  1.00 38.16     0.062 A 
ATOM     33  H8  STI A 600       7.815  18.750  20.362  1.00  0.00     0.184 HD
HETATM   34  C12 STI A 600      10.380  18.934  22.398  1.00 38.07     0.048 A 
HETATM   35  C11 STI A 600      11.322  18.356  21.527  1.00 38.38     0.108 A 
ATOM     36  H10 STI A 600      11.649  17.535  19.691  1.00  0.00     0.183 HD
HETATM   37  H13 STI A 600       8.240  17.654  18.468  1.00  0.00     0.184 HD
BRANCH  32  38
HETATM   38  C5  STI A 600       8.007  19.687  22.789  1.00 40.15     0.007 A 
HETATM   39  C4  STI A 600       7.924  21.078  22.903  1.00 38.69     0.101 A 
HETATM   40  N3  STI A 600       6.957  21.683  23.637  1.00 38.16    -0.374 N 
HETATM   41  C2  STI A 600       6.057  20.926  24.268  1.00 37.87     0.087 A 
ATOM     42  H3  STI A 600       6.918  22.700  23.706  1.00  0.00     0.164 HD
HETATM   43  C1  STI A 600       6.027  19.535  24.242  1.00 37.27     0.018 A 
HETATM   44  C6  STI A 600       7.017  18.926  23.468  1.00 39.60     0.016 A 
ENDBRANCH  32  38
ENDBRANCH   1  28
TORSDOF 6
ENDMDL
