REMARK  5 active torsions:
REMARK  status: ('A' for Active; 'I' for Inactive)
REMARK    1  A    between atoms: N_3  and  C_11 
REMARK       I    between atoms: N_3  and  C_20 
REMARK    2  A    between atoms: N_4  and  C_13 
REMARK       I    between atoms: N_4  and  C_19 
REMARK    3  A    between atoms: C_18  and  C_19 
REMARK    4  A    between atoms: C_21  and  C_29 
REMARK    5  A    between atoms: C_24  and  C_27 
ROOT
HETATM    1  C   UNK N   1      -2.540  -2.440   0.051  0.00  0.00     0.057 A 
HETATM    2  C   UNK N   1      -2.641  -3.760   0.565  0.00  0.00    -0.035 A 
HETATM    3  C   UNK N   1      -0.082  -2.589   0.254  0.00  0.00     0.037 A 
HETATM    4  C   UNK N   1      -1.249  -1.866  -0.106  0.00  0.00     0.060 A 
HETATM    5  C   UNK N   1      -1.486  -4.457   0.926  0.00  0.00     0.011 A 
HETATM    6  C   UNK N   1      -0.234  -3.883   0.772  0.00  0.00     0.030 A 
HETATM    7  C   UNK N   1      -3.976  -4.439   0.745  0.00  0.00     0.050 C 
ENDROOT
BRANCH   1   8
HETATM    8  N   UNK N   1      -3.740  -1.741  -0.333  0.00  0.00    -0.191 N 
HETATM    9  C   UNK N   1      -3.892  -0.333  -0.504  0.00  0.00     0.683 A 
HETATM   10  N   UNK N   1      -2.944   0.546  -0.077  0.00  0.00    -0.191 N 
HETATM   11  N   UNK N   1      -5.045   0.140  -1.045  0.00  0.00    -0.202 N 
HETATM   12  C   UNK N   1      -3.097   1.893  -0.217  0.00  0.00     0.062 A 
ATOM     13  HN  UNK N   1      -2.095   0.186   0.360  1.00  0.00     0.184 HD
HETATM   14  C   UNK N   1      -4.281   2.379  -0.802  0.00  0.00     0.048 A 
HETATM   15  C   UNK N   1      -5.253   1.470  -1.204  0.00  0.00     0.108 A 
ATOM     16  HN  UNK N   1      -5.768  -0.518  -1.336  1.00  0.00     0.183 HD
HETATM   17  H   UNK N   1      -4.596  -2.295  -0.476  0.00  0.00     0.184 HD
BRANCH  12  18
HETATM   18  C   UNK N   1      -2.016   2.805   0.265  0.00  0.00     0.007 A 
HETATM   19  C   UNK N   1      -1.001   2.305   1.103  0.00  0.00     0.016 A 
HETATM   20  C   UNK N   1       0.009   3.148   1.565  0.00  0.00     0.018 A 
HETATM   21  C   UNK N   1       0.013   4.488   1.182  0.00  0.00     0.087 A 
HETATM   22  N   UNK N   1      -0.963   4.965   0.368  0.00  0.00    -0.374 N 
HETATM   23  C   UNK N   1      -1.967   4.171  -0.090  0.00  0.00     0.101 A 
ATOM     24  HN  UNK N   1      -0.943   5.948   0.094  1.00  0.00     0.164 HD
ENDBRANCH  12  18
ENDBRANCH   1   8
BRANCH   3  25
HETATM   25  N   UNK N   1       1.266  -2.100   0.101  0.00  0.00    -0.323 N 
HETATM   26  C   UNK N   1       1.673  -0.834  -0.244  0.00  0.00     0.256 C 
HETATM   27  O   UNK N   1       0.856   0.053  -0.421  0.00  0.00    -0.267 OA
HETATM   28  H   UNK N   1       1.996  -2.787   0.314  0.00  0.00     0.169 HD
BRANCH  26  29
HETATM   29  C   UNK N   1       3.137  -0.492  -0.362  0.00  0.00     0.032 A 
HETATM   30  C   UNK N   1       3.525   0.859  -0.479  0.00  0.00     0.017 A 
HETATM   31  C   UNK N   1       4.877   1.212  -0.565  0.00  0.00     0.009 A 
HETATM   32  C   UNK N   1       5.871   0.224  -0.539  0.00  0.00    -0.044 A 
HETATM   33  C   UNK N   1       5.498  -1.121  -0.444  0.00  0.00     0.009 A 
HETATM   34  C   UNK N   1       4.152  -1.480  -0.357  0.00  0.00     0.017 A 
BRANCH  32  35
HETATM   35  C   UNK N   1       7.326   0.594  -0.612  0.00  0.00     0.153 C 
HETATM   36 Cl   UNK N   1       8.158   0.113   0.890  0.00  0.00    -0.126 Cl
ENDBRANCH  32  35
ENDBRANCH  26  29
ENDBRANCH   3  25
TORSDOF 5
