REMARK  6 active torsions:
REMARK  status: ('A' for Active; 'I' for Inactive)
REMARK    1  A    between atoms: N_2  and  C_16 
REMARK       I    between atoms: N_4  and  C_24 
REMARK    2  A    between atoms: N_4  and  C_25 
REMARK    3  A    between atoms: N_5  and  C_28 
REMARK       I    between atoms: N_5  and  C_32 
REMARK    4  A    between atoms: C_16  and  C_18 
REMARK    5  A    between atoms: C_23  and  C_24 
REMARK    6  A    between atoms: C_33  and  C_34 
ROOT
HETATM    1  C   UNK N   1      -0.466  -1.172  -0.595  0.00  0.00     0.035 A 
HETATM    2  C   UNK N   1      -1.982  -3.007  -0.025  0.00  0.00    -0.033 A 
HETATM    3  C   UNK N   1      -0.691  -2.491  -0.179  0.00  0.00     0.038 A 
HETATM    4  C   UNK N   1      -3.107  -2.187  -0.288  0.00  0.00     0.055 A 
HETATM    5  C   UNK N   1      -1.583  -0.356  -0.869  0.00  0.00     0.032 A 
HETATM    6  C   UNK N   1      -2.882  -0.858  -0.718  0.00  0.00     0.033 A 
HETATM    7  C   UNK N   1      -2.134  -4.434   0.438  0.00  0.00     0.050 C 
ENDROOT
BRANCH   1   8
HETATM    8  N   UNK N   1       0.902  -0.754  -0.739  0.00  0.00    -0.323 N 
HETATM    9  C   UNK N   1       1.378   0.518  -0.935  0.00  0.00     0.256 C 
HETATM   10  O   UNK N   1       0.619   1.473  -0.955  0.00  0.00    -0.267 OA
HETATM   11  H   UNK N   1       1.593  -1.502  -0.620  0.00  0.00     0.169 HD
BRANCH   9  12
HETATM   12  C   UNK N   1       2.856   0.764  -1.047  0.00  0.00     0.032 A 
HETATM   13  C   UNK N   1       3.762  -0.283  -1.334  0.00  0.00     0.017 A 
HETATM   14  C   UNK N   1       5.132  -0.043  -1.390  0.00  0.00     0.010 A 
HETATM   15  C   UNK N   1       5.639   1.236  -1.145  0.00  0.00    -0.030 A 
HETATM   16  C   UNK N   1       4.753   2.291  -0.883  0.00  0.00     0.010 A 
HETATM   17  C   UNK N   1       3.371   2.061  -0.848  0.00  0.00     0.017 A 
BRANCH  15  18
HETATM   18  C   UNK N   1       7.132   1.452  -1.143  0.00  0.00     0.311 C 
BRANCH  18  19
HETATM   19  N   UNK N   1       7.806   0.493  -0.240  0.00  0.00     0.096 N 
HETATM   20  C   UNK N   1       7.373   0.616   1.168  0.00  0.00     0.303 C 
HETATM   21  C   UNK N   1       8.046  -0.476   2.006  0.00  0.00     0.302 C 
HETATM   22  N   UNK N   1       9.512  -0.345   1.917  0.00  0.00     0.087 N 
HETATM   23  C   UNK N   1       9.949  -0.451   0.512  0.00  0.00     0.302 C 
HETATM   24  C   UNK N   1      10.169  -1.374   2.736  0.00  0.00     0.310 C 
HETATM   25  C   UNK N   1       9.271   0.635  -0.330  0.00  0.00     0.303 C 
ENDBRANCH  18  19
ENDBRANCH  15  18
ENDBRANCH   9  12
ENDBRANCH   1   8
BRANCH   4  26
HETATM   26  N   UNK N   1      -4.430  -2.738  -0.149  0.00  0.00    -0.191 N 
HETATM   27  C   UNK N   1      -5.647  -2.005  -0.033  0.00  0.00     0.683 A 
HETATM   28  N   UNK N   1      -5.653  -0.667   0.206  0.00  0.00    -0.191 N 
HETATM   29  N   UNK N   1      -6.827  -2.677  -0.102  0.00  0.00    -0.202 N 
HETATM   30  C   UNK N   1      -6.812   0.037   0.335  0.00  0.00     0.062 A 
ATOM     31  HN  UNK N   1      -4.763  -0.175   0.290  1.00  0.00     0.184 HD
HETATM   32  C   UNK N   1      -8.033  -0.654   0.237  0.00  0.00     0.048 A 
HETATM   33  C   UNK N   1      -8.011  -2.029   0.024  0.00  0.00     0.108 A 
ATOM     34  HN  UNK N   1      -6.821  -3.686  -0.251  1.00  0.00     0.183 HD
HETATM   35  H   UNK N   1      -4.527  -3.762  -0.109  0.00  0.00     0.184 HD
BRANCH  30  36
HETATM   36  C   UNK N   1      -6.745   1.508   0.590  0.00  0.00     0.007 A 
HETATM   37  C   UNK N   1      -5.525   2.095   0.976  0.00  0.00     0.016 A 
HETATM   38  C   UNK N   1      -5.453   3.466   1.224  0.00  0.00     0.018 A 
HETATM   39  C   UNK N   1      -6.594   4.251   1.075  0.00  0.00     0.087 A 
HETATM   40  N   UNK N   1      -7.766   3.682   0.695  0.00  0.00    -0.374 N 
HETATM   41  C   UNK N   1      -7.872   2.347   0.456  0.00  0.00     0.101 A 
ATOM     42  HN  UNK N   1      -8.591   4.272   0.586  1.00  0.00     0.164 HD
ENDBRANCH  30  36
ENDBRANCH   4  26
TORSDOF 6
