REMARK  2 active torsions:
REMARK  status: ('A' for Active; 'I' for Inactive)
REMARK    1  A    between atoms: N_1  and  C_7 
REMARK    2  A    between atoms: N_3  and  C_10 
REMARK       I    between atoms: N_4  and  C_13 
REMARK       I    between atoms: N_5  and  C_13 
ROOT
HETATM    1  C   UNK N   1      -0.296  -1.338  -0.083  0.00  0.00    -0.035 A 
HETATM    2  C   UNK N   1       0.131  -0.036  -0.413  0.00  0.00     0.057 A 
HETATM    3  C   UNK N   1      -0.782   1.027  -0.392  0.00  0.00     0.059 A 
HETATM    4  C   UNK N   1      -1.635  -1.553   0.281  0.00  0.00     0.011 A 
HETATM    5  C   UNK N   1      -2.116   0.806  -0.024  0.00  0.00     0.027 A 
HETATM    6  C   UNK N   1      -2.536  -0.486   0.317  0.00  0.00     0.029 A 
HETATM    7  C   UNK N   1       0.669  -2.490  -0.111  0.00  0.00     0.050 C 
ENDROOT
BRANCH   2   8
HETATM    8  N   UNK N   1       1.485   0.215  -0.761  0.00  0.00    -0.192 N 
HETATM    9  C   UNK N   1       2.386   0.536   0.107  0.00  0.00     0.669 C 
HETATM   10  N   UNK N   1       3.715   0.773  -0.324  0.00  0.00    -0.235 N 
HETATM   11  N   UNK N   1       2.077   0.655   1.495  0.00  0.00    -0.235 N 
HETATM   12  H   UNK N   1       3.962   0.694  -1.322  0.00  0.00     0.174 HD
HETATM   13  H   UNK N   1       4.443   1.027   0.358  0.00  0.00     0.174 HD
HETATM   14  H   UNK N   1       2.816   0.908   2.164  0.00  0.00     0.174 HD
HETATM   15  H   UNK N   1       1.126   0.489   1.855  0.00  0.00     0.174 HD
ATOM     16  HN  UNK N   1       1.758   0.138  -1.741  1.00  0.00     0.184 HD
ENDBRANCH   2   8
BRANCH   5  17
HETATM   17  N   UNK N   1      -3.032   1.886   0.010  0.00  0.00    -0.399 N 
HETATM   18  H   UNK N   1      -4.011   1.732   0.292  0.00  0.00     0.156 HD
HETATM   19  H   UNK N   1      -2.729   2.838  -0.243  0.00  0.00     0.156 HD
ENDBRANCH   5  17
TORSDOF 2
