REMARK  6 active torsions:
REMARK  status: ('A' for Active; 'I' for Inactive)
REMARK    1  A    between atoms: N_2  and  C_16 
REMARK       I    between atoms: N_4  and  C_23 
REMARK    2  A    between atoms: N_4  and  C_24 
REMARK    3  A    between atoms: N_5  and  C_25 
REMARK       I    between atoms: N_5  and  C_31 
REMARK    4  A    between atoms: C_16  and  C_17 
REMARK    5  A    between atoms: C_22  and  C_23 
REMARK    6  A    between atoms: C_32  and  C_33 
ROOT
HETATM    1  C   UNK N   1       1.393   2.598  -0.134  0.00  0.00     0.037 A 
HETATM    2  C   UNK N   1       3.791   2.302  -0.116  0.00  0.00     0.057 A 
HETATM    3  C   UNK N   1       2.511   1.818   0.159  0.00  0.00     0.060 A 
HETATM    4  C   UNK N   1       3.951   3.565  -0.684  0.00  0.00    -0.035 A 
HETATM    5  C   UNK N   1       1.553   3.861  -0.702  0.00  0.00     0.030 A 
HETATM    6  C   UNK N   1       2.832   4.345  -0.977  0.00  0.00     0.011 A 
HETATM    7  C   UNK N   1       5.309   4.109  -0.989  0.00  0.00     0.050 C 
ENDROOT
BRANCH   1   8
HETATM    8  N   UNK N   1       0.094   2.106   0.144  0.00  0.00    -0.323 N 
HETATM    9  C   UNK N   1      -0.272   0.875   0.707  0.00  0.00     0.256 C 
HETATM   10  O   UNK N   1       0.523  -0.010   1.063  0.00  0.00    -0.267 OA
HETATM   11  H   UNK N   1      -0.645   2.739  -0.149  0.00  0.00     0.169 HD
BRANCH   9  12
HETATM   12  C   UNK N   1      -1.698   0.663   0.898  0.00  0.00     0.032 A 
HETATM   13  C   UNK N   1      -2.546   1.755   1.079  0.00  0.00     0.017 A 
HETATM   14  C   UNK N   1      -3.914   1.553   1.262  0.00  0.00     0.010 A 
HETATM   15  C   UNK N   1      -4.434   0.258   1.263  0.00  0.00    -0.030 A 
HETATM   16  C   UNK N   1      -3.585  -0.834   1.083  0.00  0.00     0.010 A 
HETATM   17  C   UNK N   1      -2.217  -0.632   0.900  0.00  0.00     0.017 A 
BRANCH  15  18
HETATM   18  C   UNK N   1      -5.910   0.039   1.461  0.00  0.00     0.311 C 
BRANCH  18  19
HETATM   19  N   UNK N   1      -6.585  -0.284   0.205  0.00  0.00     0.096 N 
HETATM   20  C   UNK N   1      -6.775   0.921  -0.611  0.00  0.00     0.302 C 
HETATM   21  C   UNK N   1      -7.491   0.582  -1.920  0.00  0.00     0.299 C 
HETATM   22  N   UNK N   1      -8.777  -0.077  -1.680  0.00  0.00     0.086 N 
HETATM   23  C   UNK N   1      -8.582  -1.273  -0.856  0.00  0.00     0.299 C 
HETATM   24  H   UNK N   1      -9.197  -0.341  -2.570  0.00  0.00     0.315 HD
HETATM   25  C   UNK N   1      -7.872  -0.944   0.460  0.00  0.00     0.302 C 
ENDBRANCH  18  19
ENDBRANCH  15  18
ENDBRANCH   9  12
ENDBRANCH   1   8
BRANCH   2  26
HETATM   26  N   UNK N   1       4.912   1.499   0.189  0.00  0.00    -0.191 N 
HETATM   27  C   UNK N   1       5.101   0.105   0.233  0.00  0.00     0.683 A 
HETATM   28  N   UNK N   1       4.034  -0.657  -0.069  0.00  0.00    -0.191 N 
HETATM   29  N   UNK N   1       6.333  -0.324   0.571  0.00  0.00    -0.202 N 
HETATM   30  C   UNK N   1       4.252  -1.988  -0.021  0.00  0.00     0.062 A 
ATOM     31  HN  UNK N   1       3.128  -0.259  -0.317  1.00  0.00     0.184 HD
HETATM   32  C   UNK N   1       5.466  -2.554   0.310  0.00  0.00     0.048 A 
HETATM   33  C   UNK N   1       6.481  -1.664   0.599  0.00  0.00     0.108 A 
ATOM     34  HN  UNK N   1       7.096   0.317   0.788  1.00  0.00     0.183 HD
HETATM   35  H   UNK N   1       5.779   2.008   0.324  0.00  0.00     0.184 HD
BRANCH  30  36
HETATM   36  C   UNK N   1       3.110  -2.809  -0.344  0.00  0.00     0.007 A 
HETATM   37  C   UNK N   1       2.134  -2.362  -1.228  0.00  0.00     0.016 A 
HETATM   38  C   UNK N   1       1.044  -3.176  -1.521  0.00  0.00     0.018 A 
HETATM   39  C   UNK N   1       0.978  -4.416  -0.908  0.00  0.00     0.087 A 
HETATM   40  N   UNK N   1       1.907  -4.884  -0.044  0.00  0.00    -0.374 N 
HETATM   41  C   UNK N   1       2.951  -4.066   0.216  0.00  0.00     0.101 A 
ATOM     42  HN  UNK N   1       1.824  -5.804   0.389  1.00  0.00     0.164 HD
ENDBRANCH  30  36
ENDBRANCH   2  26
TORSDOF 6
