REMARK  3 active torsions:
REMARK  status: ('A' for Active; 'I' for Inactive)
REMARK    1  A    between atoms: N_2  and  C_13 
REMARK       I    between atoms: N_4  and  C_17 
REMARK    2  A    between atoms: C_13  and  C_15 
REMARK    3  A    between atoms: C_17  and  C_19 
ROOT
HETATM    1  C   UNK N   1       1.450   1.654  -0.065  0.00  0.00    -0.030 A 
HETATM    2  C   UNK N   1      -1.343   1.387   0.007  0.00  0.00     0.032 A 
HETATM    3  C   UNK N   1       0.734   1.375  -1.242  0.00  0.00     0.010 A 
HETATM    4  C   UNK N   1       0.758   1.803   1.146  0.00  0.00     0.010 A 
HETATM    5  C   UNK N   1      -0.659   1.253  -1.207  0.00  0.00     0.017 A 
HETATM    6  C   UNK N   1      -0.631   1.660   1.183  0.00  0.00     0.017 A 
ENDROOT
BRANCH   2   7
HETATM    7  C   UNK N   1      -2.811   1.235   0.061  0.00  0.00     0.253 C 
HETATM    8  O   UNK N   1      -3.497   2.236  -0.085  0.00  0.00    -0.267 OA
HETATM    9  N   UNK N   1      -3.397   0.022   0.342  0.00  0.00    -0.344 N 
HETATM   10  C   UNK N   1      -4.843  -0.101   0.500  0.00  0.00     0.161 C 
HETATM   11  C   UNK N   1      -2.622  -1.202   0.509  0.00  0.00     0.156 C 
HETATM   12  C   UNK N   1      -5.364  -1.209  -0.434  0.00  0.00     0.234 C 
HETATM   13  N   UNK N   1      -4.620  -2.458  -0.182  0.00  0.00     0.090 N 
HETATM   14  C   UNK N   1      -6.860  -1.434  -0.194  0.00  0.00     0.044 C 
HETATM   15  C   UNK N   1      -3.183  -2.272  -0.434  0.00  0.00     0.290 C 
HETATM   16  H   UNK N   1      -4.972  -3.209  -0.821  0.00  0.00     0.316 HD
ENDBRANCH   2   7
BRANCH   1  17
HETATM   17  C   UNK N   1       2.949   1.790  -0.108  0.00  0.00     0.311 C 
BRANCH  17  18
HETATM   18  N   UNK N   1       3.581   0.469  -0.310  0.00  0.00     0.096 N 
HETATM   19  C   UNK N   1       3.586  -0.288   0.965  0.00  0.00     0.303 C 
HETATM   20  C   UNK N   1       4.251  -1.653   0.781  0.00  0.00     0.302 C 
HETATM   21  N   UNK N   1       5.629  -1.476   0.289  0.00  0.00     0.087 N 
HETATM   22  C   UNK N   1       5.619  -0.744  -0.990  0.00  0.00     0.302 C 
HETATM   23  C   UNK N   1       6.286  -2.782   0.131  0.00  0.00     0.310 C 
HETATM   24  C   UNK N   1       4.964   0.629  -0.800  0.00  0.00     0.303 C 
ENDBRANCH  17  18
ENDBRANCH   1  17
TORSDOF 3
