REMARK  5 active torsions:
REMARK  status: ('A' for Active; 'I' for Inactive)
REMARK    1  A    between atoms: N_3  and  C_11 
REMARK       I    between atoms: N_3  and  C_18 
REMARK    2  A    between atoms: N_4  and  C_13 
REMARK       I    between atoms: N_4  and  C_19 
REMARK    3  A    between atoms: C_19  and  C_20 
REMARK    4  A    between atoms: C_21  and  C_22 
REMARK    5  A    between atoms: C_26  and  C_33 
ROOT
HETATM    1  C   UNK N   1       2.628   2.364   0.004  0.00  0.00     0.057 A 
HETATM    2  C   UNK N   1       2.800   3.679  -0.506  0.00  0.00    -0.035 A 
HETATM    3  C   UNK N   1       0.187   2.611  -0.283  0.00  0.00     0.037 A 
HETATM    4  C   UNK N   1       1.311   1.843   0.117  0.00  0.00     0.060 A 
HETATM    5  C   UNK N   1       1.687   4.420  -0.909  0.00  0.00     0.011 A 
HETATM    6  C   UNK N   1       0.408   3.897  -0.797  0.00  0.00     0.030 A 
HETATM    7  C   UNK N   1       4.166   4.303  -0.639  0.00  0.00     0.050 C 
ENDROOT
BRANCH   1   8
HETATM    8  N   UNK N   1       3.785   1.619   0.427  0.00  0.00    -0.191 N 
HETATM    9  C   UNK N   1       3.877   0.205   0.586  0.00  0.00     0.683 A 
HETATM   10  N   UNK N   1       2.909  -0.631   0.121  0.00  0.00    -0.191 N 
HETATM   11  N   UNK N   1       4.995  -0.319   1.155  0.00  0.00    -0.202 N 
HETATM   12  C   UNK N   1       3.005  -1.985   0.251  0.00  0.00     0.062 A 
ATOM     13  HN  UNK N   1       2.089  -0.234  -0.338  1.00  0.00     0.184 HD
HETATM   14  C   UNK N   1       4.150  -2.523   0.865  0.00  0.00     0.048 A 
HETATM   15  C   UNK N   1       5.146  -1.657   1.305  0.00  0.00     0.108 A 
ATOM     16  HN  UNK N   1       5.734   0.307   1.476  1.00  0.00     0.183 HD
HETATM   17  H   UNK N   1       4.656   2.138   0.605  0.00  0.00     0.184 HD
BRANCH  12  18
HETATM   18  C   UNK N   1       1.903  -2.848  -0.270  0.00  0.00     0.007 A 
HETATM   19  C   UNK N   1       0.950  -2.310  -1.154  0.00  0.00     0.016 A 
HETATM   20  C   UNK N   1      -0.078  -3.111  -1.652  0.00  0.00     0.018 A 
HETATM   21  C   UNK N   1      -0.162  -4.444  -1.257  0.00  0.00     0.087 A 
HETATM   22  N   UNK N   1       0.756  -4.958  -0.397  0.00  0.00    -0.374 N 
HETATM   23  C   UNK N   1       1.776  -4.206   0.096  0.00  0.00     0.101 A 
ATOM     24  HN  UNK N   1       0.678  -5.935  -0.114  1.00  0.00     0.164 HD
ENDBRANCH  12  18
ENDBRANCH   1   8
BRANCH   3  25
HETATM   25  N   UNK N   1      -1.183   2.178  -0.173  0.00  0.00    -0.323 N 
HETATM   26  C   UNK N   1      -1.652   0.927   0.141  0.00  0.00     0.256 C 
HETATM   27  O   UNK N   1      -0.880  -0.001   0.318  0.00  0.00    -0.267 OA
HETATM   28  H   UNK N   1      -1.879   2.897  -0.400  0.00  0.00     0.169 HD
BRANCH  26  29
HETATM   29  C   UNK N   1      -3.132   0.652   0.216  0.00  0.00     0.032 A 
HETATM   30  C   UNK N   1      -4.091   1.691   0.265  0.00  0.00     0.018 A 
HETATM   31  C   UNK N   1      -5.456   1.402   0.311  0.00  0.00     0.015 A 
HETATM   32  C   UNK N   1      -5.903   0.077   0.307  0.00  0.00     0.002 A 
HETATM   33  C   UNK N   1      -4.963  -0.965   0.273  0.00  0.00     0.015 A 
HETATM   34  C   UNK N   1      -3.592  -0.681   0.235  0.00  0.00     0.018 A 
BRANCH  32  35
HETATM   35  C   UNK N   1      -7.355  -0.198   0.335  0.00  0.00     0.269 C 
HETATM   36  O   UNK N   1      -7.777  -1.344   0.319  0.00  0.00    -0.301 OA
ENDBRANCH  32  35
ENDBRANCH  26  29
ENDBRANCH   3  25
TORSDOF 5
