REMARK  10 active torsions:
REMARK  status: ('A' for Active; 'I' for Inactive)
REMARK    1  A    between atoms: O_1  and  C_24 
REMARK    2  A    between atoms: N_4  and  C_18 
REMARK    3  A    between atoms: N_5  and  C_19 
REMARK       I    between atoms: N_6  and  C_28 
REMARK    4  A    between atoms: N_6  and  C_29 
REMARK    5  A    between atoms: N_7  and  C_31 
REMARK       I    between atoms: N_7  and  C_36 
REMARK    6  A    between atoms: C_18  and  C_20 
REMARK    7  A    between atoms: C_19  and  C_21 
REMARK    8  A    between atoms: C_20  and  C_24 
REMARK    9  A    between atoms: C_27  and  C_28 
REMARK   10  A    between atoms: C_37  and  C_38 
ROOT
HETATM    1  C   UNK N   1       3.037   2.599  -0.431  0.00  0.00     0.037 A 
HETATM    2  C   UNK N   1       4.118   1.693  -0.282  0.00  0.00     0.060 A 
HETATM    3  C   UNK N   1       5.383   1.966  -0.868  0.00  0.00     0.057 A 
HETATM    4  C   UNK N   1       3.246   3.770  -1.173  0.00  0.00     0.030 A 
HETATM    5  C   UNK N   1       5.552   3.174  -1.595  0.00  0.00    -0.035 A 
HETATM    6  C   UNK N   1       4.477   4.053  -1.745  0.00  0.00     0.011 A 
HETATM    7  C   UNK N   1       6.871   3.536  -2.230  0.00  0.00     0.050 C 
ENDROOT
BRANCH   1   8
HETATM    8  N   UNK N   1       1.730   2.418   0.149  0.00  0.00    -0.323 N 
HETATM    9  C   UNK N   1       1.231   1.301   0.772  0.00  0.00     0.256 C 
HETATM   10  O   UNK N   1       1.897   0.283   0.853  0.00  0.00    -0.267 OA
HETATM   11  H   UNK N   1       1.095   3.214   0.032  0.00  0.00     0.169 HD
BRANCH   9  12
HETATM   12  C   UNK N   1      -0.173   1.284   1.316  0.00  0.00     0.032 A 
HETATM   13  C   UNK N   1      -0.931   2.466   1.489  0.00  0.00     0.017 A 
HETATM   14  C   UNK N   1      -2.240   2.411   1.969  0.00  0.00     0.010 A 
HETATM   15  C   UNK N   1      -2.829   1.182   2.281  0.00  0.00    -0.030 A 
HETATM   16  C   UNK N   1      -2.085   0.003   2.130  0.00  0.00     0.010 A 
HETATM   17  C   UNK N   1      -0.768   0.053   1.661  0.00  0.00     0.017 A 
BRANCH  15  18
HETATM   18  C   UNK N   1      -4.254   1.121   2.767  0.00  0.00     0.311 C 
BRANCH  18  19
HETATM   19  N   UNK N   1      -5.088   0.355   1.818  0.00  0.00     0.096 N 
HETATM   20  C   UNK N   1      -5.326   1.125   0.577  0.00  0.00     0.303 C 
HETATM   21  C   UNK N   1      -6.168   0.303  -0.402  0.00  0.00     0.302 C 
HETATM   22  N   UNK N   1      -7.459  -0.065   0.221  0.00  0.00     0.092 N 
HETATM   23  C   UNK N   1      -7.208  -0.836   1.455  0.00  0.00     0.302 C 
HETATM   24  C   UNK N   1      -6.377  -0.003   2.435  0.00  0.00     0.303 C 
BRANCH  22  25
HETATM   25  C   UNK N   1      -8.310  -0.846  -0.704  0.00  0.00     0.283 C 
BRANCH  25  26
HETATM   26  C   UNK N   1      -8.964   0.054  -1.769  0.00  0.00     0.140 C 
BRANCH  26  27
HETATM   27  C   UNK N   1      -9.880  -0.699  -2.700  0.00  0.00     0.141 C 
HETATM   28  O   UNK N   1     -10.038  -1.906  -2.587  0.00  0.00    -0.650 OA
BRANCH  27  29
HETATM   29  O   UNK N   1     -10.528  -0.025  -3.673  0.00  0.00    -0.776 OA
HETATM   30  H   UNK N   1     -11.120  -0.480  -4.289  0.00  0.00     0.167 HD
ENDBRANCH  27  29
ENDBRANCH  26  27
ENDBRANCH  25  26
ENDBRANCH  22  25
ENDBRANCH  18  19
ENDBRANCH  15  18
ENDBRANCH   9  12
ENDBRANCH   1   8
BRANCH   3  31
HETATM   31  N   UNK N   1       6.504   1.075  -0.713  0.00  0.00    -0.191 N 
HETATM   32  C   UNK N   1       6.452  -0.312  -0.385  0.00  0.00     0.683 A 
HETATM   33  N   UNK N   1       5.281  -1.007  -0.400  0.00  0.00    -0.191 N 
HETATM   34  N   UNK N   1       7.613  -0.966  -0.118  0.00  0.00    -0.202 N 
HETATM   35  C   UNK N   1       5.232  -2.338  -0.106  0.00  0.00     0.062 A 
ATOM     36  HN  UNK N   1       4.417  -0.519  -0.637  1.00  0.00     0.184 HD
HETATM   37  C   UNK N   1       6.432  -3.006   0.195  0.00  0.00     0.048 A 
HETATM   38  C   UNK N   1       7.623  -2.290   0.173  0.00  0.00     0.108 A 
ATOM     39  HN  UNK N   1       8.493  -0.451  -0.138  1.00  0.00     0.183 HD
HETATM   40  H   UNK N   1       7.447   1.450  -0.889  0.00  0.00     0.184 HD
BRANCH  35  41
HETATM   41  C   UNK N   1       3.915  -3.043  -0.125  0.00  0.00     0.007 A 
HETATM   42  C   UNK N   1       2.806  -2.440  -0.748  0.00  0.00     0.016 A 
HETATM   43  C   UNK N   1       1.574  -3.095  -0.776  0.00  0.00     0.018 A 
HETATM   44  C   UNK N   1       1.447  -4.344  -0.171  0.00  0.00     0.087 A 
HETATM   45  N   UNK N   1       2.518  -4.918   0.436  0.00  0.00    -0.374 N 
HETATM   46  C   UNK N   1       3.734  -4.310   0.470  0.00  0.00     0.101 A 
ATOM     47  HN  UNK N   1       2.407  -5.831   0.878  1.00  0.00     0.164 HD
ENDBRANCH  35  41
ENDBRANCH   3  31
TORSDOF 10
