REMARK  7 active torsions:
REMARK  status: ('A' for Active; 'I' for Inactive)
REMARK    1  A    between atoms: O_2  and  C_33 
REMARK       I    between atoms: N_4  and  C_13 
REMARK    2  A    between atoms: N_5  and  C_14 
REMARK    3  A    between atoms: N_6  and  C_19 
REMARK    4  A    between atoms: C_13  and  C_15 
REMARK    5  A    between atoms: C_14  and  C_16 
REMARK    6  A    between atoms: C_19  and  C_24 
REMARK    7  A    between atoms: C_32  and  C_33 
ROOT
HETATM    1  O   UNK N   1       0.289  -3.763   0.996  0.00  0.00    -0.259 OA
HETATM    2  N   UNK N   1      -0.358  -2.129  -0.445  0.00  0.00    -0.001 N 
HETATM    3  N   UNK N   1      -2.452  -0.136  -0.970  0.00  0.00     0.096 N 
HETATM    4  C   UNK N   1      -0.056  -0.700  -0.698  0.00  0.00     0.277 C 
HETATM    5  C   UNK N   1      -1.734  -2.277   0.083  0.00  0.00     0.277 C 
HETATM    6  C   UNK N   1      -1.115  -0.005  -1.579  0.00  0.00     0.301 C 
HETATM    7  C   UNK N   1      -2.795  -1.567  -0.784  0.00  0.00     0.301 C 
HETATM    8  C   UNK N   1      -0.261  -2.881  -1.717  0.00  0.00     0.283 C 
HETATM    9  C   UNK N   1       0.563  -2.714   0.422  0.00  0.00     0.351 C 
ENDROOT
BRANCH   9  10
HETATM   10  C   UNK N   1       1.957  -2.217   0.546  0.00  0.00     0.040 A 
HETATM   11  C   UNK N   1       2.973  -2.770  -0.247  0.00  0.00     0.017 A 
HETATM   12  C   UNK N   1       4.283  -2.292  -0.145  0.00  0.00     0.010 A 
HETATM   13  C   UNK N   1       4.590  -1.263   0.759  0.00  0.00    -0.030 A 
HETATM   14  C   UNK N   1       3.573  -0.721   1.561  0.00  0.00     0.010 A 
HETATM   15  C   UNK N   1       2.264  -1.194   1.453  0.00  0.00     0.017 A 
BRANCH  13  16
HETATM   16  C   UNK N   1       6.000  -0.748   0.889  0.00  0.00     0.311 C 
BRANCH  16  17
HETATM   17  N   UNK N   1       6.061   0.700   0.600  0.00  0.00     0.096 N 
HETATM   18  C   UNK N   1       7.319   1.271   1.118  0.00  0.00     0.303 C 
HETATM   19  C   UNK N   1       7.358   2.779   0.855  0.00  0.00     0.302 C 
HETATM   20  N   UNK N   1       7.256   3.034  -0.593  0.00  0.00     0.087 N 
HETATM   21  C   UNK N   1       5.998   2.473  -1.119  0.00  0.00     0.302 C 
HETATM   22  C   UNK N   1       7.331   4.477  -0.864  0.00  0.00     0.310 C 
HETATM   23  C   UNK N   1       5.947   0.963  -0.851  0.00  0.00     0.303 C 
ENDBRANCH  16  17
ENDBRANCH  13  16
ENDBRANCH   9  10
BRANCH   3  24
HETATM   24  C   UNK N   1      -3.467   0.523  -1.818  0.00  0.00     0.311 C 
BRANCH  24  25
HETATM   25  C   UNK N   1      -4.722   0.792  -1.031  0.00  0.00    -0.030 A 
HETATM   26  C   UNK N   1      -4.738   1.797  -0.051  0.00  0.00     0.010 A 
HETATM   27  C   UNK N   1      -5.908   2.060   0.670  0.00  0.00     0.019 A 
HETATM   28  C   UNK N   1      -7.072   1.306   0.434  0.00  0.00     0.037 A 
HETATM   29  C   UNK N   1      -7.047   0.294  -0.540  0.00  0.00     0.019 A 
HETATM   30  C   UNK N   1      -5.884   0.047  -1.274  0.00  0.00     0.010 A 
BRANCH  28  31
HETATM   31  C   UNK N   1      -8.315   1.571   1.201  0.00  0.00     0.176 C 
HETATM   32  O   UNK N   1      -8.348   2.467   2.033  0.00  0.00    -0.646 OA
BRANCH  31  33
HETATM   33  O   UNK N   1      -9.417   0.820   0.985  0.00  0.00    -0.773 OA
HETATM   34  H   UNK N   1     -10.235   0.974   1.479  0.00  0.00     0.167 HD
ENDBRANCH  31  33
ENDBRANCH  28  31
ENDBRANCH  24  25
ENDBRANCH   3  24
TORSDOF 7
