REMARK  7 active torsions:
REMARK  status: ('A' for Active; 'I' for Inactive)
REMARK    1  A    between atoms: N_3  and  C_23 
REMARK       I    between atoms: N_4  and  C_24 
REMARK    2  A    between atoms: N_5  and  C_25 
REMARK       I    between atoms: N_7  and  C_37 
REMARK    3  A    between atoms: N_7  and  C_38 
REMARK    4  A    between atoms: N_8  and  C_41 
REMARK       I    between atoms: N_8  and  C_45 
REMARK    5  A    between atoms: C_24  and  C_26 
REMARK    6  A    between atoms: C_36  and  C_37 
REMARK    7  A    between atoms: C_46  and  C_49 
ROOT
HETATM    1  O   UNK N   1      -3.708  -4.738  -1.229  0.00  0.00    -0.267 OA
HETATM    2  N   UNK N   1      -4.175  -2.803  -0.170  0.00  0.00    -0.323 N 
HETATM    3  C   UNK N   1      -3.302  -3.771  -0.606  0.00  0.00     0.256 C 
HETATM    4  H   UNK N   1      -3.780  -1.970   0.274  0.00  0.00     0.169 HD
ENDROOT
BRANCH   3   5
HETATM    5  C   UNK N   1      -1.822  -3.659  -0.350  0.00  0.00     0.032 A 
HETATM    6  C   UNK N   1      -1.278  -2.661   0.485  0.00  0.00     0.019 A 
HETATM    7  C   UNK N   1       0.089  -2.593   0.719  0.00  0.00     0.030 A 
HETATM    8  C   UNK N   1       0.976  -3.517   0.136  0.00  0.00     0.030 A 
HETATM    9  C   UNK N   1       0.438  -4.524  -0.694  0.00  0.00     0.030 A 
HETATM   10  C   UNK N   1      -0.940  -4.589  -0.935  0.00  0.00     0.019 A 
BRANCH   8  11
HETATM   11  N   UNK N   1       2.388  -3.444   0.418  0.00  0.00    -0.378 N 
HETATM   12  C   UNK N   1       3.277  -4.544   0.044  0.00  0.00     0.143 C 
HETATM   13  C   UNK N   1       4.696  -4.371   0.626  0.00  0.00     0.146 C 
HETATM   14  N   UNK N   1       5.226  -3.022   0.425  0.00  0.00    -0.345 N 
HETATM   15  C   UNK N   1       4.290  -1.977   0.014  0.00  0.00     0.146 C 
HETATM   16  C   UNK N   1       6.516  -2.736   0.826  0.00  0.00     0.253 C 
HETATM   17  C   UNK N   1       2.991  -2.166   0.795  0.00  0.00     0.143 C 
HETATM   18  O   UNK N   1       7.156  -3.587   1.430  0.00  0.00    -0.267 OA
BRANCH  16  19
HETATM   19  C   UNK N   1       7.192  -1.427   0.543  0.00  0.00     0.032 A 
HETATM   20  C   UNK N   1       8.159  -0.928   1.429  0.00  0.00     0.019 A 
HETATM   21  C   UNK N   1       8.801   0.290   1.174  0.00  0.00     0.030 A 
HETATM   22  C   UNK N   1       8.499   1.036   0.011  0.00  0.00     0.030 A 
HETATM   23  C   UNK N   1       7.548   0.508  -0.886  0.00  0.00     0.030 A 
HETATM   24  C   UNK N   1       6.918  -0.703  -0.629  0.00  0.00     0.019 A 
BRANCH  22  25
HETATM   25  N   UNK N   1       9.149   2.297  -0.267  0.00  0.00    -0.378 N 
HETATM   26  C   UNK N   1      10.569   2.457   0.039  0.00  0.00     0.153 C 
HETATM   27  C   UNK N   1      10.896   3.932   0.285  0.00  0.00     0.291 C 
HETATM   28  N   UNK N   1      10.450   4.740  -0.866  0.00  0.00     0.087 N 
HETATM   29  C   UNK N   1       8.989   4.624  -1.015  0.00  0.00     0.291 C 
HETATM   30  C   UNK N   1      10.837   6.146  -0.689  0.00  0.00     0.310 C 
HETATM   31  C   UNK N   1       8.616   3.171  -1.309  0.00  0.00     0.153 C 
ENDBRANCH  22  25
ENDBRANCH  16  19
ENDBRANCH   8  11
ENDBRANCH   3   5
BRANCH   2  32
HETATM   32  C   UNK N   1      -5.609  -2.798  -0.286  0.00  0.00     0.037 A 
HETATM   33  C   UNK N   1      -6.283  -1.614   0.067  0.00  0.00     0.060 A 
HETATM   34  C   UNK N   1      -7.688  -1.506   0.005  0.00  0.00     0.057 A 
HETATM   35  C   UNK N   1      -8.431  -2.646  -0.397  0.00  0.00    -0.035 A 
HETATM   36  C   UNK N   1      -7.762  -3.828  -0.748  0.00  0.00     0.011 A 
HETATM   37  C   UNK N   1      -9.936  -2.618  -0.473  0.00  0.00     0.050 C 
HETATM   38  C   UNK N   1      -6.372  -3.908  -0.700  0.00  0.00     0.030 A 
BRANCH  34  39
HETATM   39  N   UNK N   1      -8.379  -0.287   0.350  0.00  0.00    -0.191 N 
HETATM   40  C   UNK N   1      -7.828   1.034   0.375  0.00  0.00     0.682 A 
HETATM   41  N   UNK N   1      -8.638   2.073   0.699  0.00  0.00    -0.201 N 
HETATM   42  N   UNK N   1      -6.549   1.287  -0.000  0.00  0.00    -0.201 N 
HETATM   43  C   UNK N   1      -8.201   3.357   0.661  0.00  0.00     0.119 A 
ATOM     44  HN  UNK N   1      -9.601   1.885   0.978  1.00  0.00     0.183 HD
HETATM   45  C   UNK N   1      -6.876   3.649   0.278  0.00  0.00     0.007 A 
HETATM   46  C   UNK N   1      -6.054   2.550  -0.043  0.00  0.00     0.119 A 
ATOM     47  HN  UNK N   1      -5.944   0.507  -0.257  1.00  0.00     0.183 HD
HETATM   48  H   UNK N   1      -9.394  -0.338   0.509  0.00  0.00     0.184 HD
BRANCH  45  49
HETATM   49  C   UNK N   1      -6.370   5.071   0.199  0.00  0.00    -0.008 A 
HETATM   50  C   UNK N   1      -7.264   6.166   0.183  0.00  0.00     0.015 A 
HETATM   51  C   UNK N   1      -6.783   7.471   0.092  0.00  0.00     0.018 A 
HETATM   52  C   UNK N   1      -5.413   7.696   0.022  0.00  0.00     0.087 A 
HETATM   53  N   UNK N   1      -4.552   6.647   0.041  0.00  0.00    -0.375 N 
HETATM   54  C   UNK N   1      -4.987   5.361   0.122  0.00  0.00     0.100 A 
ATOM     55  HN  UNK N   1      -3.550   6.829  -0.007  1.00  0.00     0.164 HD
ENDBRANCH  45  49
ENDBRANCH  34  39
ENDBRANCH   2  32
TORSDOF 7
