REMARK  2 active torsions:
REMARK  status: ('A' for Active; 'I' for Inactive)
REMARK    1  A    between atoms: N_1  and  C_7 
REMARK    2  A    between atoms: N_3  and  C_8 
REMARK       I    between atoms: N_4  and  C_13 
REMARK       I    between atoms: N_5  and  C_13 
ROOT
HETATM    1  C   UNK N   1       0.778   1.224   0.203  0.00  0.00    -0.032 A 
HETATM    2  C   UNK N   1       0.100   0.001   0.386  0.00  0.00     0.081 A 
HETATM    3  C   UNK N   1       0.784  -1.220   0.202  0.00  0.00     0.053 A 
HETATM    4  C   UNK N   1       2.128   1.215  -0.180  0.00  0.00     0.009 A 
HETATM    5  C   UNK N   1       2.131  -1.205  -0.185  0.00  0.00     0.031 A 
HETATM    6  C   UNK N   1       0.062   2.533   0.396  0.00  0.00     0.050 C 
HETATM    7  C   UNK N   1       2.795   0.006  -0.381  0.00  0.00     0.003 A 
ENDROOT
BRANCH   2   8
HETATM    8  N   UNK N   1      -1.286  -0.001   0.702  0.00  0.00    -0.190 N 
HETATM    9  C   UNK N   1      -2.197  -0.014  -0.215  0.00  0.00     0.670 C 
HETATM   10  N   UNK N   1      -3.565  -0.018   0.157  0.00  0.00    -0.235 N 
HETATM   11  N   UNK N   1      -1.855  -0.022  -1.601  0.00  0.00    -0.235 N 
HETATM   12  H   UNK N   1      -3.839  -0.013   1.150  0.00  0.00     0.174 HD
HETATM   13  H   UNK N   1      -4.297  -0.026  -0.567  0.00  0.00     0.174 HD
HETATM   14  H   UNK N   1      -2.596  -0.030  -2.314  0.00  0.00     0.174 HD
HETATM   15  H   UNK N   1      -0.875  -0.018  -1.918  0.00  0.00     0.174 HD
ATOM     16  HN  UNK N   1      -1.570   0.008   1.682  1.00  0.00     0.184 HD
ENDBRANCH   2   8
BRANCH   3  17
HETATM   17  N   UNK N   1       0.123  -2.463   0.391  0.00  0.00    -0.397 N 
HETATM   18  H   UNK N   1       0.628  -3.349   0.247  0.00  0.00     0.156 HD
HETATM   19  H   UNK N   1      -0.862  -2.503   0.693  0.00  0.00     0.156 HD
ENDBRANCH   3  17
TORSDOF 2
