REMARK  2 active torsions:
REMARK  status: ('A' for Active; 'I' for Inactive)
REMARK    1  A    between atoms: N_3  and  C_9 
REMARK    2  A    between atoms: N_5  and  C_11 
REMARK       I    between atoms: N_6  and  C_15 
REMARK       I    between atoms: N_7  and  C_15 
ROOT
HETATM    1  C   UNK N   1       0.260   1.087  -0.247  0.00  0.00    -0.032 A 
HETATM    2  C   UNK N   1       0.921  -0.130  -0.501  0.00  0.00     0.055 A 
HETATM    3  C   UNK N   1      -1.125   1.088  -0.024  0.00  0.00     0.045 A 
HETATM    4  C   UNK N   1      -1.858  -0.112  -0.052  0.00  0.00     0.103 A 
HETATM    5  C   UNK N   1       0.192  -1.324  -0.549  0.00  0.00     0.033 A 
HETATM    6  C   UNK N   1      -1.186  -1.318  -0.324  0.00  0.00     0.038 A 
HETATM    7  C   UNK N   1       1.024   2.381  -0.201  0.00  0.00     0.050 C 
ENDROOT
BRANCH   2   8
HETATM    8  N   UNK N   1       2.325  -0.161  -0.702  0.00  0.00    -0.192 N 
HETATM    9  C   UNK N   1       3.170  -0.322   0.265  0.00  0.00     0.669 C 
HETATM   10  N   UNK N   1       4.556  -0.338  -0.021  0.00  0.00    -0.235 N 
HETATM   11  N   UNK N   1       2.737  -0.478   1.614  0.00  0.00    -0.235 N 
HETATM   12  H   UNK N   1       4.893  -0.225  -0.988  0.00  0.00     0.174 HD
HETATM   13  H   UNK N   1       5.238  -0.463   0.740  0.00  0.00     0.174 HD
HETATM   14  H   UNK N   1       1.740  -0.470   1.871  0.00  0.00     0.174 HD
HETATM   15  H   UNK N   1       3.433  -0.601   2.362  0.00  0.00     0.174 HD
ATOM     16  HN  UNK N   1       2.684  -0.051  -1.650  1.00  0.00     0.184 HD
ENDBRANCH   2   8
BRANCH   4  17
HETATM   17  N   UNK N   1      -3.263  -0.109   0.199  0.00  0.00    -0.116 N 
HETATM   18  O   UNK N   1      -3.946  -1.233   0.180  0.00  0.00    -0.532 OA
HETATM   19  O   UNK N   1      -3.830   0.914   0.448  0.00  0.00    -0.532 OA
ENDBRANCH   4  17
TORSDOF 2
