REMARK  2 active torsions:
REMARK  status: ('A' for Active; 'I' for Inactive)
REMARK    1  A    between atoms: N_3  and  C_9 
REMARK    2  A    between atoms: N_5  and  C_10 
REMARK       I    between atoms: N_6  and  C_15 
REMARK       I    between atoms: N_7  and  C_15 
ROOT
HETATM    1  C   UNK N   1      -0.958   1.551  -0.235  0.00  0.00    -0.032 A 
HETATM    2  C   UNK N   1      -0.168   0.385  -0.315  0.00  0.00     0.088 A 
HETATM    3  C   UNK N   1      -0.733  -0.868  -0.015  0.00  0.00     0.130 A 
HETATM    4  C   UNK N   1      -2.300   1.450   0.163  0.00  0.00     0.009 A 
HETATM    5  C   UNK N   1      -2.073  -0.951   0.384  0.00  0.00     0.038 A 
HETATM    6  C   UNK N   1      -0.371   2.895  -0.566  0.00  0.00     0.050 C 
HETATM    7  C   UNK N   1      -2.850   0.205   0.479  0.00  0.00     0.003 A 
ENDROOT
BRANCH   2   8
HETATM    8  N   UNK N   1       1.199   0.472  -0.694  0.00  0.00    -0.190 N 
HETATM    9  C   UNK N   1       2.156   0.633   0.162  0.00  0.00     0.670 C 
HETATM   10  N   UNK N   1       3.492   0.720  -0.298  0.00  0.00    -0.235 N 
HETATM   11  N   UNK N   1       1.896   0.729   1.560  0.00  0.00    -0.235 N 
HETATM   12  H   UNK N   1       3.706   0.658  -1.304  0.00  0.00     0.174 HD
HETATM   13  H   UNK N   1       4.261   0.852   0.375  0.00  0.00     0.174 HD
HETATM   14  H   UNK N   1       0.942   0.672   1.942  0.00  0.00     0.174 HD
HETATM   15  H   UNK N   1       2.679   0.859   2.216  0.00  0.00     0.174 HD
ATOM     16  HN  UNK N   1       1.436   0.406  -1.684  1.00  0.00     0.184 HD
ENDBRANCH   2   8
BRANCH   3  17
HETATM   17  N   UNK N   1       0.047  -2.043  -0.113  0.00  0.00    -0.113 N 
HETATM   18  O   UNK N   1       0.058  -2.733  -1.232  0.00  0.00    -0.532 OA
HETATM   19  O   UNK N   1       0.654  -2.439   0.837  0.00  0.00    -0.532 OA
ENDBRANCH   3  17
TORSDOF 2
