REMARK  2 active torsions:
REMARK  status: ('A' for Active; 'I' for Inactive)
REMARK    1  A    between atoms: O_1  and  C_3 
REMARK    2  A    between atoms: N_2  and  C_3 
ROOT
HETATM    1  C   UNK N   1       0.320  -0.261  -0.436  0.00  0.00     0.353 C 
HETATM    2  C   UNK N   1       0.763  -1.731  -0.388  0.00  0.00     0.073 C 
ENDROOT
BRANCH   1   3
HETATM    3  O   UNK N   1       1.019   0.516   0.530  0.00  0.00    -0.362 OA
HETATM    4  C   UNK N   1       2.296   0.891   0.064  0.00  0.00     0.204 C 
ENDBRANCH   1   3
BRANCH   1   5
HETATM    5  N   UNK N   1      -1.145  -0.165  -0.215  0.00  0.00     0.108 N 
HETATM    6  C   UNK N   1      -1.543  -0.306   1.199  0.00  0.00     0.312 C 
HETATM    7  C   UNK N   1      -1.692   1.084  -0.768  0.00  0.00     0.312 C 
ENDBRANCH   1   5
TORSDOF 2
