REMARK  6 active torsions:
REMARK  status: ('A' for Active; 'I' for Inactive)
REMARK    1  A    between atoms: N_2  and  C_16 
REMARK       I    between atoms: N_4  and  C_24 
REMARK    2  A    between atoms: N_4  and  C_25 
REMARK    3  A    between atoms: N_5  and  C_26 
REMARK       I    between atoms: N_5  and  C_32 
REMARK    4  A    between atoms: C_16  and  C_18 
REMARK    5  A    between atoms: C_23  and  C_24 
REMARK    6  A    between atoms: C_33  and  C_34 
ROOT
HETATM    1  C   UNK N   1      -1.752   2.755   0.182  0.00  0.00     0.037 A 
HETATM    2  C   UNK N   1      -4.197   2.441   0.321  0.00  0.00     0.057 A 
HETATM    3  C   UNK N   1      -2.908   1.964  -0.042  0.00  0.00     0.060 A 
HETATM    4  C   UNK N   1      -4.308   3.731   0.905  0.00  0.00    -0.035 A 
HETATM    5  C   UNK N   1      -1.909   4.015   0.776  0.00  0.00     0.030 A 
HETATM    6  C   UNK N   1      -3.160   4.493   1.134  0.00  0.00     0.011 A 
HETATM    7  C   UNK N   1      -5.644   4.309   1.299  0.00  0.00     0.050 C 
ENDROOT
BRANCH   1   8
HETATM    8  N   UNK N   1      -0.415   2.371  -0.191  0.00  0.00    -0.323 N 
HETATM    9  C   UNK N   1       0.027   1.135  -0.593  0.00  0.00     0.256 C 
HETATM   10  O   UNK N   1      -0.729   0.178  -0.609  0.00  0.00    -0.267 OA
HETATM   11  H   UNK N   1       0.289   3.110  -0.091  0.00  0.00     0.169 HD
BRANCH   9  12
HETATM   12  C   UNK N   1       1.472   0.919  -0.949  0.00  0.00     0.032 A 
HETATM   13  C   UNK N   1       2.000  -0.388  -0.974  0.00  0.00     0.017 A 
HETATM   14  C   UNK N   1       3.356  -0.603  -1.251  0.00  0.00     0.010 A 
HETATM   15  C   UNK N   1       4.202   0.478  -1.539  0.00  0.00    -0.030 A 
HETATM   16  C   UNK N   1       3.678   1.774  -1.556  0.00  0.00     0.010 A 
HETATM   17  C   UNK N   1       2.335   1.998  -1.254  0.00  0.00     0.017 A 
BRANCH  15  18
HETATM   18  C   UNK N   1       5.667   0.250  -1.813  0.00  0.00     0.311 C 
BRANCH  18  19
HETATM   19  N   UNK N   1       6.359  -0.155  -0.570  0.00  0.00     0.096 N 
HETATM   20  C   UNK N   1       7.679  -0.739  -0.880  0.00  0.00     0.303 C 
HETATM   21  C   UNK N   1       8.393  -1.142   0.416  0.00  0.00     0.302 C 
HETATM   22  N   UNK N   1       8.566   0.041   1.277  0.00  0.00     0.087 N 
HETATM   23  C   UNK N   1       7.251   0.616   1.609  0.00  0.00     0.302 C 
HETATM   24  C   UNK N   1       9.297  -0.307   2.503  0.00  0.00     0.310 C 
HETATM   25  C   UNK N   1       6.525   1.017   0.323  0.00  0.00     0.303 C 
ENDBRANCH  18  19
ENDBRANCH  15  18
ENDBRANCH   9  12
ENDBRANCH   1   8
BRANCH   2  26
HETATM   26  N   UNK N   1      -5.393   1.678   0.075  0.00  0.00    -0.191 N 
HETATM   27  C   UNK N   1      -5.481   0.271  -0.140  0.00  0.00     0.683 A 
HETATM   28  N   UNK N   1      -4.429  -0.557   0.109  0.00  0.00    -0.191 N 
HETATM   29  N   UNK N   1      -6.668  -0.257  -0.538  0.00  0.00    -0.202 N 
HETATM   30  C   UNK N   1      -4.519  -1.906  -0.076  0.00  0.00     0.062 A 
ATOM     31  HN  UNK N   1      -3.551  -0.159   0.442  1.00  0.00     0.184 HD
HETATM   32  C   UNK N   1      -5.741  -2.447  -0.514  0.00  0.00     0.048 A 
HETATM   33  C   UNK N   1      -6.814  -1.590  -0.732  0.00  0.00     0.108 A 
ATOM     34  HN  UNK N   1      -7.463   0.361  -0.695  1.00  0.00     0.183 HD
HETATM   35  H   UNK N   1      -6.293   2.177   0.076  0.00  0.00     0.184 HD
BRANCH  30  36
HETATM   36  C   UNK N   1      -3.326  -2.762   0.201  0.00  0.00     0.007 A 
HETATM   37  C   UNK N   1      -2.245  -2.242   0.936  0.00  0.00     0.017 A 
HETATM   38  C   UNK N   1      -1.128  -3.035   1.200  0.00  0.00     0.025 A 
HETATM   39  C   UNK N   1      -1.084  -4.346   0.717  0.00  0.00     0.005 A 
HETATM   40  N   UNK N   1      -2.131  -4.838   0.003  0.00  0.00    -0.369 N 
HETATM   41  C   UNK N   1       0.107  -5.211   0.978  0.00  0.00     0.068 C 
HETATM   42  C   UNK N   1      -3.237  -4.093  -0.258  0.00  0.00     0.101 A 
ATOM     43  HN  UNK N   1      -2.084  -5.794  -0.348  1.00  0.00     0.165 HD
ENDBRANCH  30  36
ENDBRANCH   2  26
TORSDOF 6
