REMARK  6 active torsions:
REMARK  status: ('A' for Active; 'I' for Inactive)
REMARK    1  A    between atoms: N_2  and  C_16 
REMARK       I    between atoms: N_4  and  C_24 
REMARK    2  A    between atoms: N_4  and  C_25 
REMARK    3  A    between atoms: N_5  and  C_26 
REMARK       I    between atoms: N_5  and  C_32 
REMARK    4  A    between atoms: C_16  and  C_18 
REMARK    5  A    between atoms: C_23  and  C_24 
REMARK    6  A    between atoms: C_33  and  C_34 
ROOT
HETATM    1  C   UNK N   1      -1.664   2.597   0.128  0.00  0.00     0.037 A 
HETATM    2  C   UNK N   1      -4.059   2.286   0.183  0.00  0.00     0.057 A 
HETATM    3  C   UNK N   1      -2.787   1.812  -0.135  0.00  0.00     0.060 A 
HETATM    4  C   UNK N   1      -4.209   3.546   0.763  0.00  0.00    -0.035 A 
HETATM    5  C   UNK N   1      -1.814   3.857   0.708  0.00  0.00     0.030 A 
HETATM    6  C   UNK N   1      -3.087   4.331   1.026  0.00  0.00     0.011 A 
HETATM    7  C   UNK N   1      -5.560   4.079   1.113  0.00  0.00     0.050 C 
ENDROOT
BRANCH   1   8
HETATM    8  N   UNK N   1      -0.371   2.116  -0.196  0.00  0.00    -0.323 N 
HETATM    9  C   UNK N   1      -0.016   0.891  -0.777  0.00  0.00     0.256 C 
HETATM   10  O   UNK N   1      -0.816   0.003  -1.112  0.00  0.00    -0.267 OA
HETATM   11  H   UNK N   1       0.373   2.753   0.077  0.00  0.00     0.169 HD
BRANCH   9  12
HETATM   12  C   UNK N   1       1.405   0.690  -1.015  0.00  0.00     0.032 A 
HETATM   13  C   UNK N   1       1.931  -0.601  -1.043  0.00  0.00     0.017 A 
HETATM   14  C   UNK N   1       3.293  -0.794  -1.272  0.00  0.00     0.010 A 
HETATM   15  C   UNK N   1       4.129   0.304  -1.474  0.00  0.00    -0.030 A 
HETATM   16  C   UNK N   1       3.603   1.595  -1.447  0.00  0.00     0.010 A 
HETATM   17  C   UNK N   1       2.240   1.789  -1.218  0.00  0.00     0.017 A 
BRANCH  15  18
HETATM   18  C   UNK N   1       5.599   0.096  -1.724  0.00  0.00     0.311 C 
BRANCH  18  19
HETATM   19  N   UNK N   1       6.319  -0.232  -0.495  0.00  0.00     0.096 N 
HETATM   20  C   UNK N   1       7.600  -0.882  -0.799  0.00  0.00     0.303 C 
HETATM   21  C   UNK N   1       8.357  -1.225   0.488  0.00  0.00     0.302 C 
HETATM   22  N   UNK N   1       8.573  -0.024   1.304  0.00  0.00     0.087 N 
HETATM   23  C   UNK N   1       7.292   0.627   1.607  0.00  0.00     0.302 C 
HETATM   24  C   UNK N   1       9.291  -0.353   2.533  0.00  0.00     0.310 C 
HETATM   25  C   UNK N   1       6.536   0.970   0.319  0.00  0.00     0.303 C 
ENDBRANCH  18  19
ENDBRANCH  15  18
ENDBRANCH   9  12
ENDBRANCH   1   8
BRANCH   2  26
HETATM   26  N   UNK N   1      -5.185   1.478  -0.089  0.00  0.00    -0.191 N 
HETATM   27  C   UNK N   1      -5.367   0.083  -0.132  0.00  0.00     0.683 A 
HETATM   28  N   UNK N   1      -4.284  -0.673   0.129  0.00  0.00    -0.191 N 
HETATM   29  N   UNK N   1      -6.606  -0.352  -0.431  0.00  0.00    -0.202 N 
HETATM   30  C   UNK N   1      -4.494  -2.005   0.079  0.00  0.00     0.062 A 
ATOM     31  HN  UNK N   1      -3.373  -0.269   0.348  1.00  0.00     0.184 HD
HETATM   32  C   UNK N   1      -5.715  -2.578  -0.215  0.00  0.00     0.048 A 
HETATM   33  C   UNK N   1      -6.745  -1.694  -0.464  0.00  0.00     0.108 A 
ATOM     34  HN  UNK N   1      -7.381   0.284  -0.618  1.00  0.00     0.183 HD
HETATM   35  H   UNK N   1      -6.060   1.982  -0.193  0.00  0.00     0.184 HD
BRANCH  30  36
HETATM   36  C   UNK N   1      -3.336  -2.819   0.358  0.00  0.00     0.007 A 
HETATM   37  C   UNK N   1      -2.334  -2.371   1.212  0.00  0.00     0.016 A 
HETATM   38  C   UNK N   1      -1.229  -3.178   1.462  0.00  0.00     0.018 A 
HETATM   39  C   UNK N   1      -1.175  -4.415   0.839  0.00  0.00     0.087 A 
HETATM   40  N   UNK N   1      -2.129  -4.883   0.003  0.00  0.00    -0.374 N 
HETATM   41  C   UNK N   1      -3.187  -4.071  -0.216  0.00  0.00     0.101 A 
ATOM     42  HN  UNK N   1      -2.054  -5.800  -0.438  1.00  0.00     0.164 HD
ENDBRANCH  30  36
ENDBRANCH   2  26
TORSDOF 6
