REMARK  6 active torsions:
REMARK  status: ('A' for Active; 'I' for Inactive)
REMARK    1  A    between atoms: N_4  and  C_18 
REMARK       I    between atoms: N_5  and  C_25 
REMARK    2  A    between atoms: N_5  and  C_26 
REMARK    3  A    between atoms: N_6  and  C_28 
REMARK       I    between atoms: N_6  and  C_33 
REMARK    4  A    between atoms: C_18  and  C_19 
REMARK    5  A    between atoms: C_24  and  C_25 
REMARK    6  A    between atoms: C_34  and  C_35 
ROOT
HETATM    1  C   UNK N   1       1.969  -2.616   0.118  0.00  0.00     0.037 A 
HETATM    2  C   UNK N   1       3.133  -1.829  -0.074  0.00  0.00     0.060 A 
HETATM    3  C   UNK N   1       4.415  -2.325   0.287  0.00  0.00     0.057 A 
HETATM    4  C   UNK N   1       2.112  -3.893   0.679  0.00  0.00     0.030 A 
HETATM    5  C   UNK N   1       4.511  -3.632   0.836  0.00  0.00    -0.035 A 
HETATM    6  C   UNK N   1       3.355  -4.391   1.034  0.00  0.00     0.011 A 
HETATM    7  C   UNK N   1       5.839  -4.230   1.225  0.00  0.00     0.050 C 
ENDROOT
BRANCH   1   8
HETATM    8  N   UNK N   1       0.639  -2.211  -0.256  0.00  0.00    -0.323 N 
HETATM    9  C   UNK N   1       0.210  -0.962  -0.631  0.00  0.00     0.256 C 
HETATM   10  O   UNK N   1       0.974  -0.011  -0.618  0.00  0.00    -0.267 OA
HETATM   11  H   UNK N   1      -0.073  -2.947  -0.180  0.00  0.00     0.169 HD
BRANCH   9  12
HETATM   12  C   UNK N   1      -1.230  -0.726  -0.993  0.00  0.00     0.032 A 
HETATM   13  C   UNK N   1      -1.748   0.585  -0.989  0.00  0.00     0.017 A 
HETATM   14  C   UNK N   1      -3.100   0.818  -1.270  0.00  0.00     0.010 A 
HETATM   15  C   UNK N   1      -3.951  -0.248  -1.593  0.00  0.00    -0.030 A 
HETATM   16  C   UNK N   1      -3.437  -1.548  -1.641  0.00  0.00     0.010 A 
HETATM   17  C   UNK N   1      -2.098  -1.790  -1.334  0.00  0.00     0.017 A 
BRANCH  15  18
HETATM   18  C   UNK N   1      -5.412  -0.002  -1.869  0.00  0.00     0.311 C 
BRANCH  18  19
HETATM   19  N   UNK N   1      -6.107   0.373  -0.619  0.00  0.00     0.097 N 
HETATM   20  C   UNK N   1      -7.419   0.979  -0.916  0.00  0.00     0.309 C 
HETATM   21  C   UNK N   1      -8.130   1.369   0.392  0.00  0.00     0.341 C 
HETATM   22  N   UNK N   1      -8.309   0.194   1.274  0.00  0.00     0.013 N 
HETATM   23  O   UNK N   1      -9.126  -0.702   0.658  0.00  0.00    -0.065 OA
HETATM   24  C   UNK N   1      -7.004  -0.447   1.545  0.00  0.00     0.341 C 
HETATM   25  C   UNK N   1      -8.957   0.587   2.538  0.00  0.00     0.356 C 
HETATM   26  C   UNK N   1      -6.291  -0.822   0.239  0.00  0.00     0.309 C 
ENDBRANCH  18  19
ENDBRANCH  15  18
ENDBRANCH   9  12
ENDBRANCH   1   8
BRANCH   3  27
HETATM   27  N   UNK N   1       5.619  -1.564   0.072  0.00  0.00    -0.191 N 
HETATM   28  C   UNK N   1       5.716  -0.151  -0.096  0.00  0.00     0.683 A 
HETATM   29  N   UNK N   1       4.668   0.675   0.173  0.00  0.00    -0.191 N 
HETATM   30  N   UNK N   1       6.909   0.383  -0.468  0.00  0.00    -0.202 N 
HETATM   31  C   UNK N   1       4.767   2.028   0.036  0.00  0.00     0.062 A 
ATOM     32  HN  UNK N   1       3.785   0.271   0.485  1.00  0.00     0.184 HD
HETATM   33  C   UNK N   1       5.995   2.576  -0.374  0.00  0.00     0.048 A 
HETATM   34  C   UNK N   1       7.065   1.721  -0.615  0.00  0.00     0.108 A 
ATOM     35  HN  UNK N   1       7.703  -0.235  -0.639  1.00  0.00     0.183 HD
HETATM   36  H   UNK N   1       6.515  -2.069   0.065  0.00  0.00     0.184 HD
BRANCH  31  37
HETATM   37  C   UNK N   1       3.577   2.881   0.339  0.00  0.00     0.007 A 
HETATM   38  C   UNK N   1       2.484   2.334   1.037  0.00  0.00     0.016 A 
HETATM   39  C   UNK N   1       1.372   3.123   1.331  0.00  0.00     0.018 A 
HETATM   40  C   UNK N   1       1.346   4.453   0.918  0.00  0.00     0.087 A 
HETATM   41  N   UNK N   1       2.400   4.975   0.239  0.00  0.00    -0.374 N 
HETATM   42  C   UNK N   1       3.502   4.235  -0.053  0.00  0.00     0.101 A 
ATOM     43  HN  UNK N   1       2.364   5.950  -0.059  1.00  0.00     0.164 HD
ENDBRANCH  31  37
ENDBRANCH   3  27
TORSDOF 6
