REMARK  5 active torsions:
REMARK  status: ('A' for Active; 'I' for Inactive)
REMARK    1  A    between atoms: N_2  and  C_13 
REMARK       I    between atoms: N_4  and  C_21 
REMARK    2  A    between atoms: N_4  and  C_22 
REMARK    3  A    between atoms: N_5  and  C_26 
REMARK       I    between atoms: N_7  and  C_29 
REMARK       I    between atoms: N_8  and  C_29 
REMARK    4  A    between atoms: C_13  and  C_15 
REMARK    5  A    between atoms: C_20  and  C_21 
ROOT
HETATM    1  O   UNK N   1      -1.130   2.758   0.461  0.00  0.00    -0.267 OA
HETATM    2  N   UNK N   1      -1.688   0.634  -0.052  0.00  0.00    -0.323 N 
HETATM    3  C   UNK N   1      -0.792   1.672   0.026  0.00  0.00     0.256 C 
HETATM    4  H   UNK N   1      -1.332  -0.278  -0.352  0.00  0.00     0.169 HD
ENDROOT
BRANCH   2   5
HETATM    5  C   UNK N   1      -3.084   0.649   0.293  0.00  0.00     0.037 A 
HETATM    6  C   UNK N   1      -3.774  -0.575   0.228  0.00  0.00     0.060 A 
HETATM    7  C   UNK N   1      -5.134  -0.660   0.534  0.00  0.00     0.057 A 
HETATM    8  C   UNK N   1      -5.839   0.490   0.918  0.00  0.00    -0.035 A 
HETATM    9  C   UNK N   1      -5.166   1.718   0.987  0.00  0.00     0.011 A 
HETATM   10  C   UNK N   1      -7.303   0.408   1.243  0.00  0.00     0.050 C 
HETATM   11  C   UNK N   1      -3.803   1.805   0.677  0.00  0.00     0.030 A 
BRANCH   7  12
HETATM   12  N   UNK N   1      -5.789  -1.916   0.444  0.00  0.00    -0.192 N 
HETATM   13  C   UNK N   1      -6.293  -2.377  -0.654  0.00  0.00     0.669 C 
HETATM   14  N   UNK N   1      -6.916  -3.650  -0.648  0.00  0.00    -0.235 N 
HETATM   15  N   UNK N   1      -6.245  -1.630  -1.868  0.00  0.00    -0.235 N 
HETATM   16  H   UNK N   1      -6.955  -4.206   0.219  0.00  0.00     0.174 HD
HETATM   17  H   UNK N   1      -7.331  -4.031  -1.510  0.00  0.00     0.174 HD
HETATM   18  H   UNK N   1      -5.808  -0.699  -1.914  0.00  0.00     0.174 HD
HETATM   19  H   UNK N   1      -6.666  -2.015  -2.725  0.00  0.00     0.174 HD
ATOM     20  HN  UNK N   1      -5.867  -2.484   1.288  1.00  0.00     0.184 HD
ENDBRANCH   7  12
ENDBRANCH   2   5
BRANCH   3  21
HETATM   21  C   UNK N   1       0.643   1.476  -0.373  0.00  0.00     0.032 A 
HETATM   22  C   UNK N   1       1.607   2.436   0.001  0.00  0.00     0.017 A 
HETATM   23  C   UNK N   1       2.955   2.258  -0.329  0.00  0.00     0.010 A 
HETATM   24  C   UNK N   1       3.364   1.118  -1.033  0.00  0.00    -0.030 A 
HETATM   25  C   UNK N   1       2.414   0.172  -1.425  0.00  0.00     0.010 A 
HETATM   26  C   UNK N   1       1.070   0.347  -1.108  0.00  0.00     0.017 A 
BRANCH  24  27
HETATM   27  C   UNK N   1       4.812   0.888  -1.362  0.00  0.00     0.311 C 
BRANCH  27  28
HETATM   28  N   UNK N   1       5.322  -0.261  -0.585  0.00  0.00     0.096 N 
HETATM   29  C   UNK N   1       5.591   0.154   0.812  0.00  0.00     0.303 C 
HETATM   30  C   UNK N   1       6.141  -1.016   1.630  0.00  0.00     0.302 C 
HETATM   31  N   UNK N   1       7.371  -1.527   0.999  0.00  0.00     0.087 N 
HETATM   32  C   UNK N   1       7.078  -1.981  -0.372  0.00  0.00     0.302 C 
HETATM   33  C   UNK N   1       7.942  -2.620   1.798  0.00  0.00     0.310 C 
HETATM   34  C   UNK N   1       6.546  -0.806  -1.201  0.00  0.00     0.303 C 
ENDBRANCH  27  28
ENDBRANCH  24  27
ENDBRANCH   3  21
TORSDOF 5
