REMARK  1 active torsions:
REMARK  status: ('A' for Active; 'I' for Inactive)
REMARK    1  A    between atoms: N_1  and  C_6 
REMARK       I    between atoms: N_3  and  C_12 
REMARK       I    between atoms: N_4  and  C_12 
ROOT
HETATM    1  N   UNK N   1      -1.285  -0.118   0.736  0.00  0.00    -0.192 N 
ATOM      2  HN  UNK N   1      -1.592   0.015   1.699  1.00  0.00     0.184 HD
HETATM    3  N   UNK N   1      -3.548  -0.192   0.136  0.00  0.00    -0.235 N 
HETATM    4  N   UNK N   1      -1.794  -0.424  -1.562  0.00  0.00    -0.235 N 
HETATM    5  C   UNK N   1      -2.172  -0.242  -0.197  0.00  0.00     0.669 C 
HETATM    6  H   UNK N   1      -3.846  -0.061   1.114  0.00  0.00     0.174 HD
HETATM    7  H   UNK N   1      -4.261  -0.287  -0.600  0.00  0.00     0.174 HD
HETATM    8  H   UNK N   1      -2.514  -0.517  -2.289  0.00  0.00     0.174 HD
HETATM    9  H   UNK N   1      -0.805  -0.462  -1.852  0.00  0.00     0.174 HD
ENDROOT
BRANCH   1  10
HETATM   10  C   UNK N   1       0.104  -0.162   0.453  0.00  0.00     0.055 A 
HETATM   11  C   UNK N   1       0.806   1.017   0.126  0.00  0.00    -0.035 A 
HETATM   12  C   UNK N   1       2.159   0.932  -0.239  0.00  0.00     0.009 A 
HETATM   13  C   UNK N   1       0.110   2.351   0.145  0.00  0.00     0.050 C 
HETATM   14  C   UNK N   1       2.802  -0.310  -0.276  0.00  0.00     0.001 A 
HETATM   15  C   UNK N   1       2.106  -1.472   0.065  0.00  0.00     0.002 A 
HETATM   16  C   UNK N   1       0.761  -1.399   0.431  0.00  0.00     0.030 A 
ENDBRANCH   1  10
TORSDOF 1
