REMARK  6 active torsions:
REMARK  status: ('A' for Active; 'I' for Inactive)
REMARK    1  A    between atoms: N_2  and  C_16 
REMARK       I    between atoms: N_4  and  C_24 
REMARK    2  A    between atoms: N_4  and  C_25 
REMARK    3  A    between atoms: N_5  and  C_27 
REMARK       I    between atoms: N_5  and  C_31 
REMARK    4  A    between atoms: C_16  and  C_18 
REMARK    5  A    between atoms: C_23  and  C_24 
REMARK    6  A    between atoms: C_32  and  C_33 
ROOT
HETATM    1  C   UNK N   1      -1.435  -2.721   0.107  0.00  0.00     0.037 A 
HETATM    2  C   UNK N   1      -2.711  -2.130  -0.083  0.00  0.00     0.059 A 
HETATM    3  C   UNK N   1      -3.892  -2.855   0.224  0.00  0.00     0.051 A 
HETATM    4  C   UNK N   1      -1.373  -4.034   0.607  0.00  0.00     0.029 A 
HETATM    5  C   UNK N   1      -3.775  -4.168   0.704  0.00  0.00     0.030 A 
HETATM    6  C   UNK N   1      -2.528  -4.746   0.902  0.00  0.00     0.004 A 
ENDROOT
BRANCH   1   7
HETATM    7  N   UNK N   1      -0.186  -2.080  -0.210  0.00  0.00    -0.323 N 
HETATM    8  C   UNK N   1       0.028  -0.763  -0.537  0.00  0.00     0.256 C 
HETATM    9  O   UNK N   1      -0.890   0.040  -0.527  0.00  0.00    -0.267 OA
HETATM   10  H   UNK N   1       0.640  -2.684  -0.130  0.00  0.00     0.169 HD
BRANCH   8  11
HETATM   11  C   UNK N   1       1.413  -0.268  -0.842  0.00  0.00     0.032 A 
HETATM   12  C   UNK N   1       2.465  -1.154  -1.170  0.00  0.00     0.017 A 
HETATM   13  C   UNK N   1       3.750  -0.675  -1.412  0.00  0.00     0.010 A 
HETATM   14  C   UNK N   1       4.028   0.691  -1.316  0.00  0.00    -0.030 A 
HETATM   15  C   UNK N   1       2.991   1.587  -1.014  0.00  0.00     0.010 A 
HETATM   16  C   UNK N   1       1.692   1.113  -0.792  0.00  0.00     0.017 A 
BRANCH  14  17
HETATM   17  C   UNK N   1       5.443   1.177  -1.514  0.00  0.00     0.311 C 
BRANCH  17  18
HETATM   18  N   UNK N   1       6.386   0.436  -0.647  0.00  0.00     0.096 N 
HETATM   19  C   UNK N   1       6.092   0.583   0.794  0.00  0.00     0.303 C 
HETATM   20  C   UNK N   1       7.053  -0.296   1.602  0.00  0.00     0.302 C 
HETATM   21  N   UNK N   1       8.446   0.104   1.330  0.00  0.00     0.087 N 
HETATM   22  C   UNK N   1       8.742  -0.023  -0.109  0.00  0.00     0.302 C 
HETATM   23  C   UNK N   1       9.378  -0.716   2.118  0.00  0.00     0.310 C 
HETATM   24  C   UNK N   1       7.776   0.847  -0.921  0.00  0.00     0.303 C 
ENDBRANCH  17  18
ENDBRANCH  14  17
ENDBRANCH   8  11
ENDBRANCH   1   7
BRANCH   3  25
HETATM   25  N   UNK N   1      -5.210  -2.330   0.022  0.00  0.00    -0.192 N 
HETATM   26  C   UNK N   1      -5.565  -0.957  -0.119  0.00  0.00     0.683 A 
HETATM   27  N   UNK N   1      -4.691   0.039   0.191  0.00  0.00    -0.191 N 
HETATM   28  N   UNK N   1      -6.828  -0.641  -0.508  0.00  0.00    -0.202 N 
HETATM   29  C   UNK N   1      -5.031   1.355   0.080  0.00  0.00     0.062 A 
ATOM     30  HN  UNK N   1      -3.755  -0.205   0.515  1.00  0.00     0.184 HD
HETATM   31  C   UNK N   1      -6.330   1.680  -0.350  0.00  0.00     0.048 A 
HETATM   32  C   UNK N   1      -7.221   0.650  -0.633  0.00  0.00     0.108 A 
ATOM     33  HN  UNK N   1      -7.492  -1.389  -0.709  1.00  0.00     0.183 HD
HETATM   34  H   UNK N   1      -5.989  -3.007   0.004  0.00  0.00     0.184 HD
BRANCH  29  35
HETATM   35  C   UNK N   1      -4.025   2.401   0.435  0.00  0.00     0.007 A 
HETATM   36  C   UNK N   1      -2.871   2.046   1.159  0.00  0.00     0.016 A 
HETATM   37  C   UNK N   1      -1.931   3.017   1.505  0.00  0.00     0.018 A 
HETATM   38  C   UNK N   1      -2.137   4.340   1.117  0.00  0.00     0.087 A 
HETATM   39  N   UNK N   1      -3.247   4.677   0.412  0.00  0.00    -0.374 N 
HETATM   40  C   UNK N   1      -4.187   3.755   0.070  0.00  0.00     0.101 A 
ATOM     41  HN  UNK N   1      -3.381   5.648   0.132  1.00  0.00     0.164 HD
ENDBRANCH  29  35
ENDBRANCH   3  25
TORSDOF 6
