REMARK  6 active torsions:
REMARK  status: ('A' for Active; 'I' for Inactive)
REMARK    1  A    between atoms: N_2  and  C_16 
REMARK       I    between atoms: N_4  and  C_23 
REMARK    2  A    between atoms: N_4  and  C_24 
REMARK    3  A    between atoms: N_5  and  C_25 
REMARK       I    between atoms: N_5  and  C_31 
REMARK    4  A    between atoms: C_16  and  C_17 
REMARK    5  A    between atoms: C_22  and  C_23 
REMARK    6  A    between atoms: C_32  and  C_33 
ROOT
HETATM    1  C   UNK N   1       1.383   2.597  -0.133  0.00  0.00     0.037 A 
HETATM    2  C   UNK N   1       3.781   2.302  -0.118  0.00  0.00     0.057 A 
HETATM    3  C   UNK N   1       2.502   1.818   0.160  0.00  0.00     0.060 A 
HETATM    4  C   UNK N   1       3.940   3.565  -0.689  0.00  0.00    -0.035 A 
HETATM    5  C   UNK N   1       1.542   3.860  -0.704  0.00  0.00     0.030 A 
HETATM    6  C   UNK N   1       2.821   4.344  -0.982  0.00  0.00     0.011 A 
HETATM    7  C   UNK N   1       5.298   4.108  -0.997  0.00  0.00     0.050 C 
ENDROOT
BRANCH   1   8
HETATM    8  N   UNK N   1       0.085   2.107   0.149  0.00  0.00    -0.323 N 
HETATM    9  C   UNK N   1      -0.280   0.877   0.715  0.00  0.00     0.256 C 
HETATM   10  O   UNK N   1       0.516  -0.008   1.070  0.00  0.00    -0.267 OA
HETATM   11  H   UNK N   1      -0.655   2.739  -0.143  0.00  0.00     0.169 HD
BRANCH   9  12
HETATM   12  C   UNK N   1      -1.705   0.665   0.909  0.00  0.00     0.032 A 
HETATM   13  C   UNK N   1      -2.224  -0.630   0.914  0.00  0.00     0.017 A 
HETATM   14  C   UNK N   1      -3.591  -0.833   1.100  0.00  0.00     0.010 A 
HETATM   15  C   UNK N   1      -4.440   0.259   1.281  0.00  0.00    -0.030 A 
HETATM   16  C   UNK N   1      -3.921   1.554   1.276  0.00  0.00     0.010 A 
HETATM   17  C   UNK N   1      -2.554   1.757   1.090  0.00  0.00     0.017 A 
BRANCH  15  18
HETATM   18  C   UNK N   1      -5.914   0.041   1.481  0.00  0.00     0.311 C 
BRANCH  18  19
HETATM   19  N   UNK N   1      -6.561  -0.283   0.211  0.00  0.00     0.096 N 
HETATM   20  C   UNK N   1      -6.739   0.923  -0.607  0.00  0.00     0.302 C 
HETATM   21  C   UNK N   1      -7.426   0.583  -1.932  0.00  0.00     0.299 C 
HETATM   22  N   UNK N   1      -8.714  -0.082  -1.719  0.00  0.00     0.086 N 
HETATM   23  C   UNK N   1      -8.531  -1.278  -0.894  0.00  0.00     0.299 C 
HETATM   24  H   UNK N   1      -9.114  -0.346  -2.619  0.00  0.00     0.315 HD
HETATM   25  C   UNK N   1      -7.851  -0.949   0.437  0.00  0.00     0.302 C 
ENDBRANCH  18  19
ENDBRANCH  15  18
ENDBRANCH   9  12
ENDBRANCH   1   8
BRANCH   2  26
HETATM   26  N   UNK N   1       4.903   1.500   0.185  0.00  0.00    -0.191 N 
HETATM   27  C   UNK N   1       5.093   0.106   0.229  0.00  0.00     0.683 A 
HETATM   28  N   UNK N   1       4.024  -0.657  -0.070  0.00  0.00    -0.191 N 
HETATM   29  N   UNK N   1       6.325  -0.323   0.564  0.00  0.00    -0.202 N 
HETATM   30  C   UNK N   1       4.243  -1.987  -0.021  0.00  0.00     0.062 A 
ATOM     31  HN  UNK N   1       3.118  -0.259  -0.316  1.00  0.00     0.184 HD
HETATM   32  C   UNK N   1       5.458  -2.553   0.307  0.00  0.00     0.048 A 
HETATM   33  C   UNK N   1       6.473  -1.663   0.594  0.00  0.00     0.108 A 
ATOM     34  HN  UNK N   1       7.088   0.318   0.780  1.00  0.00     0.183 HD
HETATM   35  H   UNK N   1       5.771   2.009   0.318  0.00  0.00     0.184 HD
BRANCH  30  36
HETATM   36  C   UNK N   1       3.100  -2.808  -0.342  0.00  0.00     0.007 A 
HETATM   37  C   UNK N   1       2.122  -2.363  -1.225  0.00  0.00     0.016 A 
HETATM   38  C   UNK N   1       1.033  -3.178  -1.516  0.00  0.00     0.018 A 
HETATM   39  C   UNK N   1       0.969  -4.418  -0.902  0.00  0.00     0.087 A 
HETATM   40  N   UNK N   1       1.900  -4.885  -0.040  0.00  0.00    -0.374 N 
HETATM   41  C   UNK N   1       2.943  -4.066   0.218  0.00  0.00     0.101 A 
ATOM     42  HN  UNK N   1       1.818  -5.805   0.393  1.00  0.00     0.164 HD
ENDBRANCH  30  36
ENDBRANCH   2  26
TORSDOF 6
