REMARK  4 active torsions:
REMARK  status: ('A' for Active; 'I' for Inactive)
REMARK    1  A    between atoms: O_1  and  C_17 
REMARK    2  A    between atoms: N_3  and  C_9 
REMARK    3  A    between atoms: C_9  and  C_11 
REMARK    4  A    between atoms: C_16  and  C_17 
ROOT
HETATM    1  C   UNK N   1      -0.392   0.889  -0.567  0.00  0.00    -0.030 A 
HETATM    2  C   UNK N   1      -1.172   0.291  -1.568  0.00  0.00     0.010 A 
HETATM    3  C   UNK N   1      -0.907   1.021   0.729  0.00  0.00     0.010 A 
HETATM    4  C   UNK N   1      -2.459  -0.170  -1.272  0.00  0.00     0.019 A 
HETATM    5  C   UNK N   1      -2.188   0.562   1.025  0.00  0.00     0.019 A 
HETATM    6  C   UNK N   1      -2.977  -0.036   0.030  0.00  0.00     0.037 A 
ENDROOT
BRANCH   1   7
HETATM    7  C   UNK N   1       0.985   1.406  -0.869  0.00  0.00     0.311 C 
BRANCH   7   8
HETATM    8  N   UNK N   1       1.992   0.737  -0.020  0.00  0.00     0.096 N 
HETATM    9  C   UNK N   1       2.264  -0.633  -0.509  0.00  0.00     0.307 C 
HETATM   10  C   UNK N   1       3.330  -1.315   0.372  0.00  0.00     0.244 C 
HETATM   11  N   UNK N   1       4.563  -0.510   0.403  0.00  0.00     0.091 N 
HETATM   12  C   UNK N   1       3.645  -2.719  -0.151  0.00  0.00     0.044 C 
HETATM   13  C   UNK N   1       4.283   0.846   0.888  0.00  0.00     0.300 C 
HETATM   14  H   UNK N   1       4.978  -0.450  -0.557  0.00  0.00     0.316 HD
HETATM   15  C   UNK N   1       3.234   1.529   0.003  0.00  0.00     0.302 C 
ENDBRANCH   7   8
ENDBRANCH   1   7
BRANCH   6  16
HETATM   16  C   UNK N   1      -4.337  -0.513   0.364  0.00  0.00     0.176 C 
HETATM   17  O   UNK N   1      -5.040  -1.034  -0.488  0.00  0.00    -0.646 OA
BRANCH  16  18
HETATM   18  O   UNK N   1      -4.805  -0.369   1.625  0.00  0.00    -0.773 OA
HETATM   19  H   UNK N   1      -5.689  -0.670   1.874  0.00  0.00     0.167 HD
ENDBRANCH  16  18
ENDBRANCH   6  16
TORSDOF 4
