REMARK  8 active torsions:
REMARK  status: ('A' for Active; 'I' for Inactive)
REMARK    1  A    between atoms: O_1  and  C_19 
REMARK    2  A    between atoms: O_1  and  C_21 
REMARK    3  A    between atoms: N_4  and  C_18 
REMARK       I    between atoms: N_5  and  C_19 
REMARK       I    between atoms: N_6  and  C_30 
REMARK    4  A    between atoms: N_6  and  C_31 
REMARK    5  A    between atoms: N_7  and  C_33 
REMARK       I    between atoms: N_7  and  C_38 
REMARK    6  A    between atoms: C_18  and  C_20 
REMARK    7  A    between atoms: C_29  and  C_30 
REMARK    8  A    between atoms: C_39  and  C_40 
ROOT
HETATM    1  C   UNK N   1      -3.417   2.589  -0.286  0.00  0.00     0.037 A 
HETATM    2  C   UNK N   1      -4.571   1.774  -0.154  0.00  0.00     0.060 A 
HETATM    3  C   UNK N   1      -5.824   2.190  -0.681  0.00  0.00     0.057 A 
HETATM    4  C   UNK N   1      -3.544   3.817  -0.951  0.00  0.00     0.030 A 
HETATM    5  C   UNK N   1      -5.905   3.450  -1.331  0.00  0.00    -0.035 A 
HETATM    6  C   UNK N   1      -4.760   4.240  -1.464  0.00  0.00     0.011 A 
HETATM    7  C   UNK N   1      -7.203   3.963  -1.902  0.00  0.00     0.050 C 
ENDROOT
BRANCH   1   8
HETATM    8  N   UNK N   1      -2.113   2.258   0.236  0.00  0.00    -0.323 N 
HETATM    9  C   UNK N   1      -1.703   1.079   0.811  0.00  0.00     0.256 C 
HETATM   10  O   UNK N   1      -2.468   0.134   0.905  0.00  0.00    -0.267 OA
HETATM   11  H   UNK N   1      -1.411   2.995   0.121  0.00  0.00     0.169 HD
BRANCH   9  12
HETATM   12  C   UNK N   1      -0.284   0.899   1.295  0.00  0.00     0.032 A 
HETATM   13  C   UNK N   1       0.166  -0.386   1.669  0.00  0.00     0.017 A 
HETATM   14  C   UNK N   1       1.487  -0.590   2.088  0.00  0.00     0.010 A 
HETATM   15  C   UNK N   1       2.387   0.483   2.140  0.00  0.00    -0.030 A 
HETATM   16  C   UNK N   1       1.946   1.764   1.793  0.00  0.00     0.010 A 
HETATM   17  C   UNK N   1       0.631   1.976   1.381  0.00  0.00     0.017 A 
BRANCH  15  18
HETATM   18  C   UNK N   1       3.828   0.280   2.537  0.00  0.00     0.311 C 
BRANCH  18  19
HETATM   19  N   UNK N   1       4.694   0.582   1.379  0.00  0.00     0.095 N 
HETATM   20  C   UNK N   1       4.674  -0.542   0.412  0.00  0.00     0.292 C 
HETATM   21  C   UNK N   1       5.471  -0.173  -0.837  0.00  0.00     0.158 C 
HETATM   22  N   UNK N   1       6.814   0.222  -0.434  0.00  0.00    -0.325 N 
HETATM   23  C   UNK N   1       6.908   1.289   0.552  0.00  0.00     0.158 C 
HETATM   24  C   UNK N   1       7.929  -0.385  -0.953  0.00  0.00     0.363 C 
HETATM   25  C   UNK N   1       6.083   0.888   1.786  0.00  0.00     0.292 C 
HETATM   26  O   UNK N   1       7.809  -1.299  -1.756  0.00  0.00    -0.238 OA
BRANCH  24  27
HETATM   27  O   UNK N   1       9.172   0.060  -0.604  0.00  0.00    -0.294 OA
BRANCH  27  28
HETATM   28  C   UNK N   1      10.398  -0.364  -1.116  0.00  0.00     0.061 C 
HETATM   29  C   UNK N   1      10.459  -0.147  -2.645  0.00  0.00     0.046 C 
HETATM   30  C   UNK N   1      11.490   0.496  -0.461  0.00  0.00     0.046 C 
HETATM   31  C   UNK N   1      10.660  -1.844  -0.772  0.00  0.00     0.046 C 
ENDBRANCH  27  28
ENDBRANCH  24  27
ENDBRANCH  18  19
ENDBRANCH  15  18
ENDBRANCH   9  12
ENDBRANCH   1   8
BRANCH   3  32
HETATM   32  N   UNK N   1      -7.015   1.393  -0.542  0.00  0.00    -0.191 N 
HETATM   33  C   UNK N   1      -7.078  -0.009  -0.287  0.00  0.00     0.683 A 
HETATM   34  N   UNK N   1      -5.975  -0.802  -0.375  0.00  0.00    -0.191 N 
HETATM   35  N   UNK N   1      -8.285  -0.572  -0.015  0.00  0.00    -0.202 N 
HETATM   36  C   UNK N   1      -6.035  -2.145  -0.151  0.00  0.00     0.062 A 
ATOM     37  HN  UNK N   1      -5.079  -0.379  -0.615  1.00  0.00     0.184 HD
HETATM   38  C   UNK N   1      -7.281  -2.722   0.156  0.00  0.00     0.048 A 
HETATM   39  C   UNK N   1      -8.404  -1.904   0.209  0.00  0.00     0.108 A 
ATOM     40  HN  UNK N   1      -9.116   0.018   0.020  1.00  0.00     0.183 HD
HETATM   41  H   UNK N   1      -7.925   1.857  -0.670  0.00  0.00     0.184 HD
BRANCH  36  42
HETATM   42  C   UNK N   1      -4.785  -2.958  -0.250  0.00  0.00     0.007 A 
HETATM   43  C   UNK N   1      -3.642  -2.412  -0.863  0.00  0.00     0.016 A 
HETATM   44  C   UNK N   1      -2.472  -3.166  -0.966  0.00  0.00     0.018 A 
HETATM   45  C   UNK N   1      -2.441  -4.459  -0.447  0.00  0.00     0.087 A 
HETATM   46  N   UNK N   1      -3.544  -4.979   0.150  0.00  0.00    -0.374 N 
HETATM   47  C   UNK N   1      -4.702  -4.273   0.256  0.00  0.00     0.101 A 
ATOM     48  HN  UNK N   1      -3.503  -5.925   0.529  1.00  0.00     0.164 HD
ENDBRANCH  36  42
ENDBRANCH   3  32
TORSDOF 8
