REMARK  6 active torsions:
REMARK  status: ('A' for Active; 'I' for Inactive)
REMARK    1  A    between atoms: N_2  and  C_16 
REMARK       I    between atoms: N_4  and  C_24 
REMARK    2  A    between atoms: N_4  and  C_25 
REMARK    3  A    between atoms: N_5  and  C_26 
REMARK       I    between atoms: N_5  and  C_32 
REMARK    4  A    between atoms: C_16  and  C_18 
REMARK    5  A    between atoms: C_23  and  C_24 
REMARK    6  A    between atoms: C_33  and  C_34 
ROOT
HETATM    1  C   UNK N   1      -1.413  -2.533   0.004  0.00  0.00     0.037 A 
HETATM    2  C   UNK N   1      -3.879  -2.588   0.080  0.00  0.00     0.057 A 
HETATM    3  C   UNK N   1      -2.666  -1.903  -0.197  0.00  0.00     0.060 A 
HETATM    4  C   UNK N   1      -3.814  -3.927   0.550  0.00  0.00    -0.035 A 
HETATM    5  C   UNK N   1      -1.397  -3.848   0.488  0.00  0.00     0.030 A 
HETATM    6  C   UNK N   1      -2.572  -4.532   0.758  0.00  0.00     0.011 A 
HETATM    7  C   UNK N   1      -5.059  -4.723   0.844  0.00  0.00     0.050 C 
ENDROOT
BRANCH   1   8
HETATM    8  N   UNK N   1      -0.140  -1.928  -0.288  0.00  0.00    -0.323 N 
HETATM    9  C   UNK N   1       0.122  -0.613  -0.585  0.00  0.00     0.256 C 
HETATM   10  O   UNK N   1      -0.768   0.221  -0.563  0.00  0.00    -0.267 OA
HETATM   11  H   UNK N   1       0.664  -2.561  -0.214  0.00  0.00     0.169 HD
BRANCH   9  12
HETATM   12  C   UNK N   1       1.526  -0.162  -0.869  0.00  0.00     0.032 A 
HETATM   13  C   UNK N   1       2.545  -1.078  -1.216  0.00  0.00     0.017 A 
HETATM   14  C   UNK N   1       3.849  -0.642  -1.439  0.00  0.00     0.010 A 
HETATM   15  C   UNK N   1       4.178   0.709  -1.302  0.00  0.00    -0.030 A 
HETATM   16  C   UNK N   1       3.174   1.635  -0.980  0.00  0.00     0.010 A 
HETATM   17  C   UNK N   1       1.856   1.206  -0.778  0.00  0.00     0.017 A 
BRANCH  15  18
HETATM   18  C   UNK N   1       5.611   1.146  -1.481  0.00  0.00     0.311 C 
BRANCH  18  19
HETATM   19  N   UNK N   1       6.522   0.347  -0.631  0.00  0.00     0.096 N 
HETATM   20  C   UNK N   1       6.226   0.465   0.812  0.00  0.00     0.303 C 
HETATM   21  C   UNK N   1       7.150  -0.471   1.600  0.00  0.00     0.302 C 
HETATM   22  N   UNK N   1       8.559  -0.116   1.344  0.00  0.00     0.087 N 
HETATM   23  C   UNK N   1       8.856  -0.215  -0.097  0.00  0.00     0.302 C 
HETATM   24  C   UNK N   1       9.456  -0.991   2.112  0.00  0.00     0.310 C 
HETATM   25  C   UNK N   1       7.927   0.712  -0.888  0.00  0.00     0.303 C 
ENDBRANCH  18  19
ENDBRANCH  15  18
ENDBRANCH   9  12
ENDBRANCH   1   8
BRANCH   2  26
HETATM   26  N   UNK N   1      -5.165  -1.983  -0.144  0.00  0.00    -0.191 N 
HETATM   27  C   UNK N   1      -5.445  -0.587  -0.233  0.00  0.00     0.683 A 
HETATM   28  N   UNK N   1      -4.528   0.351   0.130  0.00  0.00    -0.191 N 
HETATM   29  N   UNK N   1      -6.685  -0.192  -0.626  0.00  0.00    -0.202 N 
HETATM   30  C   UNK N   1      -4.801   1.686   0.066  0.00  0.00     0.062 A 
ATOM     31  HN  UNK N   1      -3.611   0.048   0.458  1.00  0.00     0.184 HD
HETATM   32  C   UNK N   1      -6.076   2.092  -0.366  0.00  0.00     0.048 A 
HETATM   33  C   UNK N   1      -7.013   1.121  -0.702  0.00  0.00     0.108 A 
ATOM     34  HN  UNK N   1      -7.382  -0.896  -0.868  1.00  0.00     0.183 HD
HETATM   35  H   UNK N   1      -5.984  -2.602  -0.221  0.00  0.00     0.184 HD
BRANCH  30  36
HETATM   36  C   UNK N   1      -3.749   2.668   0.468  0.00  0.00     0.007 A 
HETATM   37  C   UNK N   1      -2.623   2.233   1.191  0.00  0.00     0.016 A 
HETATM   38  C   UNK N   1      -1.639   3.144   1.576  0.00  0.00     0.018 A 
HETATM   39  C   UNK N   1      -1.774   4.487   1.229  0.00  0.00     0.087 A 
HETATM   40  N   UNK N   1      -2.858   4.902   0.526  0.00  0.00    -0.374 N 
HETATM   41  C   UNK N   1      -3.839   4.040   0.145  0.00  0.00     0.101 A 
ATOM     42  HN  UNK N   1      -2.940   5.887   0.276  1.00  0.00     0.164 HD
ENDBRANCH  30  36
ENDBRANCH   2  26
TORSDOF 6
