REMARK  7 active torsions:
REMARK  status: ('A' for Active; 'I' for Inactive)
REMARK    1  A    between atoms: O_3  and  C_31 
REMARK    2  A    between atoms: O_3  and  C_32 
REMARK       I    between atoms: N_4  and  C_19 
REMARK    3  A    between atoms: N_5  and  C_13 
REMARK    4  A    between atoms: N_12  and  C_23 
REMARK    5  A    between atoms: C_19  and  C_22 
REMARK    6  A    between atoms: C_21  and  C_24 
REMARK    7  A    between atoms: C_22  and  C_25 
ROOT
HETATM    1  N   UNK N   1      -1.793   0.617   0.487  0.00  0.00    -0.269 N 
HETATM    2  N   UNK N   1      -0.791  -0.233   0.305  0.00  0.00    -0.295 N 
ATOM      3  HN  UNK N   1      -0.844  -1.248   0.393  1.00  0.00     0.187 HD
HETATM    4  N   UNK N   1      -2.038   3.020   0.370  0.00  0.00    -0.337 N 
ATOM      5  HN  UNK N   1      -3.030   3.013   0.610  1.00  0.00     0.168 HD
HETATM    6  N   UNK N   1      -0.048   4.191  -0.192  0.00  0.00    -0.338 N 
ATOM      7  HN  UNK N   1       0.423   5.078  -0.369  1.00  0.00     0.168 HD
HETATM    8  C   UNK N   1      -1.337   1.866   0.285  0.00  0.00     0.140 A 
HETATM    9  C   UNK N   1      -0.014   1.829  -0.033  0.00  0.00     0.082 A 
HETATM   10  C   UNK N   1       0.311   0.480  -0.017  0.00  0.00     0.076 A 
HETATM   11  C   UNK N   1       0.664   3.028  -0.279  0.00  0.00     0.116 A 
HETATM   12  C   UNK N   1      -1.383   4.193   0.127  0.00  0.00     0.183 A 
ENDROOT
BRANCH  10  13
HETATM   13  C   UNK N   1       1.601  -0.146  -0.271  0.00  0.00    -0.007 A 
HETATM   14  C   UNK N   1       1.943  -0.564  -1.565  0.00  0.00     0.016 A 
HETATM   15  C   UNK N   1       3.178  -1.179  -1.797  0.00  0.00     0.038 A 
HETATM   16  C   UNK N   1       4.075  -1.360  -0.738  0.00  0.00     0.076 A 
HETATM   17  C   UNK N   1       3.716  -0.948   0.559  0.00  0.00     0.038 A 
HETATM   18  C   UNK N   1       2.484  -0.349   0.790  0.00  0.00     0.016 A 
BRANCH  16  19
HETATM   19  O   UNK N   1       5.289  -1.918  -0.959  0.00  0.00    -0.311 OA
BRANCH  19  20
HETATM   20  C   UNK N   1       6.408  -1.391  -0.403  0.00  0.00     0.076 A 
HETATM   21  C   UNK N   1       6.609   0.003  -0.406  0.00  0.00     0.037 A 
HETATM   22  C   UNK N   1       7.745   0.551   0.185  0.00  0.00     0.003 A 
HETATM   23  C   UNK N   1       8.686  -0.285   0.791  0.00  0.00     0.000 A 
HETATM   24  C   UNK N   1       8.494  -1.672   0.794  0.00  0.00     0.003 A 
HETATM   25  C   UNK N   1       7.360  -2.227   0.189  0.00  0.00     0.037 A 
ENDBRANCH  19  20
ENDBRANCH  16  19
ENDBRANCH  10  13
BRANCH   1  26
HETATM   26  C   UNK N   1      -3.149   0.206   0.844  0.00  0.00     0.128 C 
HETATM   27  C   UNK N   1      -3.141  -0.535   2.195  0.00  0.00     0.030 C 
HETATM   28  C   UNK N   1      -4.559  -1.006   2.548  0.00  0.00     0.022 C 
HETATM   29  C   UNK N   1      -5.111  -1.901   1.432  0.00  0.00     0.126 C 
HETATM   30  N   UNK N   1      -5.039  -1.182   0.159  0.00  0.00    -0.350 N 
HETATM   31  C   UNK N   1      -3.717  -0.715  -0.249  0.00  0.00     0.153 C 
HETATM   32  C   UNK N   1      -6.147  -0.942  -0.624  0.00  0.00     0.220 C 
HETATM   33  O   UNK N   1      -6.025  -0.331  -1.678  0.00  0.00    -0.273 OA
BRANCH  32  34
HETATM   34  C   UNK N   1      -7.527  -1.426  -0.219  0.00  0.00     0.118 C 
BRANCH  34  35
HETATM   35  C   UNK N   1      -8.615  -1.079  -1.239  0.00  0.00     0.124 C 
HETATM   36 Cl   UNK N   1     -10.189  -1.703  -0.687  0.00  0.00    -0.130 Cl
ENDBRANCH  34  35
ENDBRANCH  32  34
ENDBRANCH   1  26
BRANCH  11  37
HETATM   37  N   UNK N   1       2.041   3.069  -0.610  0.00  0.00    -0.385 N 
HETATM   38  H   UNK N   1       2.605   2.213  -0.680  0.00  0.00     0.157 HD
HETATM   39  H   UNK N   1       2.498   3.976  -0.783  0.00  0.00     0.157 HD
ENDBRANCH  11  37
TORSDOF 7
