REMARK  2 active torsions:
REMARK  status: ('A' for Active; 'I' for Inactive)
REMARK    1  A    between atoms: N_1  and  C_8 
REMARK    2  A    between atoms: C_8  and  C_10 
ROOT
HETATM    1  N   UNK N   1       5.618  -0.988   0.706  0.00  0.00    -0.191 NA
HETATM    2  C   UNK N   1       0.708   0.815  -0.548  0.00  0.00    -0.030 A 
HETATM    3  C   UNK N   1       1.362   1.302   0.584  0.00  0.00     0.010 A 
HETATM    4  C   UNK N   1       1.328  -0.139  -1.355  0.00  0.00     0.010 A 
HETATM    5  C   UNK N   1       2.635   0.834   0.909  0.00  0.00     0.023 A 
HETATM    6  C   UNK N   1       2.601  -0.606  -1.030  0.00  0.00     0.023 A 
HETATM    7  C   UNK N   1       3.255  -0.120   0.102  0.00  0.00     0.044 A 
HETATM    8  C   UNK N   1       4.559  -0.599   0.435  0.00  0.00     0.099 C 
ENDROOT
BRANCH   2   9
HETATM    9  C   UNK N   1      -0.666   1.320  -0.899  0.00  0.00     0.311 C 
BRANCH   9  10
HETATM   10  N   UNK N   1      -1.697   0.732  -0.045  0.00  0.00     0.096 N 
HETATM   11  C   UNK N   1      -1.996  -0.646  -0.462  0.00  0.00     0.307 C 
HETATM   12  C   UNK N   1      -3.077  -1.265   0.439  0.00  0.00     0.244 C 
HETATM   13  N   UNK N   1      -4.292  -0.443   0.426  0.00  0.00     0.091 N 
HETATM   14  C   UNK N   1      -3.425  -2.677  -0.029  0.00  0.00     0.044 C 
HETATM   15  C   UNK N   1      -3.996   0.931   0.828  0.00  0.00     0.300 C 
HETATM   16  H   UNK N   1      -4.986  -0.842   1.058  0.00  0.00     0.316 HD
HETATM   17  C   UNK N   1      -2.916   1.549  -0.062  0.00  0.00     0.302 C 
ENDBRANCH   9  10
ENDBRANCH   2   9
TORSDOF 2
