REMARK  10 active torsions:
REMARK  status: ('A' for Active; 'I' for Inactive)
REMARK    1  A    between atoms: O_2  and  C_33 
REMARK    2  A    between atoms: N_4  and  C_18 
REMARK    3  A    between atoms: N_5  and  C_19 
REMARK       I    between atoms: N_6  and  C_32 
REMARK    4  A    between atoms: N_6  and  C_34 
REMARK    5  A    between atoms: N_7  and  C_36 
REMARK       I    between atoms: N_7  and  C_41 
REMARK    6  A    between atoms: C_18  and  C_20 
REMARK    7  A    between atoms: C_19  and  C_21 
REMARK    8  A    between atoms: C_28  and  C_32 
REMARK    9  A    between atoms: C_31  and  C_33 
REMARK   10  A    between atoms: C_42  and  C_43 
ROOT
HETATM    1  O   UNK N   1       3.131   0.272  -0.720  0.00  0.00    -0.267 OA
HETATM    2  N   UNK N   1       2.419  -1.830  -1.115  0.00  0.00    -0.323 N 
HETATM    3  C   UNK N   1       2.256  -0.467  -1.141  0.00  0.00     0.256 C 
HETATM    4  H   UNK N   1       1.608  -2.403  -1.377  0.00  0.00     0.169 HD
ENDROOT
BRANCH   2   5
HETATM    5  C   UNK N   1       3.577  -2.575  -0.692  0.00  0.00     0.037 A 
HETATM    6  C   UNK N   1       4.860  -2.011  -0.468  0.00  0.00     0.060 A 
HETATM    7  C   UNK N   1       5.960  -2.829  -0.093  0.00  0.00     0.057 A 
HETATM    8  C   UNK N   1       5.754  -4.229   0.044  0.00  0.00    -0.035 A 
HETATM    9  C   UNK N   1       4.483  -4.769  -0.165  0.00  0.00     0.011 A 
HETATM   10  C   UNK N   1       6.877  -5.161   0.424  0.00  0.00     0.050 C 
HETATM   11  C   UNK N   1       3.419  -3.959  -0.530  0.00  0.00     0.030 A 
BRANCH   7  12
HETATM   12  N   UNK N   1       7.283  -2.293   0.103  0.00  0.00    -0.191 N 
HETATM   13  C   UNK N   1       7.623  -0.934   0.369  0.00  0.00     0.683 A 
HETATM   14  N   UNK N   1       6.681  -0.017   0.721  0.00  0.00    -0.191 N 
HETATM   15  N   UNK N   1       8.932  -0.569   0.338  0.00  0.00    -0.202 N 
HETATM   16  C   UNK N   1       7.007   1.276   1.004  0.00  0.00     0.062 A 
ATOM     17  HN  UNK N   1       5.704  -0.306   0.775  1.00  0.00     0.184 HD
HETATM   18  C   UNK N   1       8.360   1.659   0.944  0.00  0.00     0.048 A 
HETATM   19  C   UNK N   1       9.314   0.702   0.612  0.00  0.00     0.108 A 
ATOM     20  HN  UNK N   1       9.640  -1.265   0.104  1.00  0.00     0.183 HD
HETATM   21  H   UNK N   1       8.078  -2.946   0.076  0.00  0.00     0.184 HD
BRANCH  16  22
HETATM   22  C   UNK N   1       5.924   2.235   1.380  0.00  0.00     0.007 A 
HETATM   23  C   UNK N   1       4.643   1.749   1.703  0.00  0.00     0.016 A 
HETATM   24  C   UNK N   1       3.625   2.633   2.061  0.00  0.00     0.018 A 
HETATM   25  C   UNK N   1       3.883   4.002   2.087  0.00  0.00     0.087 A 
HETATM   26  N   UNK N   1       5.118   4.468   1.769  0.00  0.00    -0.374 N 
HETATM   27  C   UNK N   1       6.133   3.631   1.424  0.00  0.00     0.101 A 
ATOM     28  HN  UNK N   1       5.289   5.473   1.789  1.00  0.00     0.164 HD
ENDBRANCH  16  22
ENDBRANCH   7  12
ENDBRANCH   2   5
BRANCH   3  29
HETATM   29  C   UNK N   1       0.966   0.143  -1.618  0.00  0.00     0.032 A 
HETATM   30  C   UNK N   1       0.657   1.478  -1.287  0.00  0.00     0.017 A 
HETATM   31  C   UNK N   1      -0.561   2.047  -1.679  0.00  0.00     0.010 A 
HETATM   32  C   UNK N   1      -1.479   1.306  -2.438  0.00  0.00    -0.030 A 
HETATM   33  C   UNK N   1      -1.165  -0.006  -2.805  0.00  0.00     0.010 A 
HETATM   34  C   UNK N   1       0.035  -0.589  -2.393  0.00  0.00     0.017 A 
BRANCH  32  35
HETATM   35  C   UNK N   1      -2.801   1.912  -2.842  0.00  0.00     0.311 C 
BRANCH  35  36
HETATM   36  N   UNK N   1      -3.674   2.056  -1.657  0.00  0.00     0.096 N 
HETATM   37  C   UNK N   1      -4.232   0.739  -1.274  0.00  0.00     0.303 C 
HETATM   38  C   UNK N   1      -5.120   0.872  -0.038  0.00  0.00     0.303 C 
HETATM   39  N   UNK N   1      -6.217   1.832  -0.292  0.00  0.00     0.096 N 
HETATM   40  C   UNK N   1      -5.653   3.143  -0.667  0.00  0.00     0.303 C 
HETATM   41  C   UNK N   1      -4.777   2.999  -1.921  0.00  0.00     0.303 C 
BRANCH  39  42
HETATM   42  C   UNK N   1      -7.075   1.948   0.906  0.00  0.00     0.311 C 
BRANCH  42  43
HETATM   43  C   UNK N   1      -8.002   0.762   1.007  0.00  0.00    -0.030 A 
HETATM   44  C   UNK N   1      -7.871  -0.163   2.054  0.00  0.00     0.010 A 
HETATM   45  C   UNK N   1      -8.733  -1.261   2.139  0.00  0.00     0.019 A 
HETATM   46  C   UNK N   1      -9.751  -1.442   1.185  0.00  0.00     0.037 A 
HETATM   47  C   UNK N   1      -9.884  -0.509   0.141  0.00  0.00     0.019 A 
HETATM   48  C   UNK N   1      -9.011   0.579   0.049  0.00  0.00     0.010 A 
BRANCH  46  49
HETATM   49  C   UNK N   1     -10.670  -2.604   1.283  0.00  0.00     0.176 C 
HETATM   50  O   UNK N   1     -11.568  -2.750   0.466  0.00  0.00    -0.646 OA
BRANCH  49  51
HETATM   51  O   UNK N   1     -10.518  -3.509   2.275  0.00  0.00    -0.773 OA
HETATM   52  H   UNK N   1     -11.105  -4.275   2.349  0.00  0.00     0.167 HD
ENDBRANCH  49  51
ENDBRANCH  46  49
ENDBRANCH  42  43
ENDBRANCH  39  42
ENDBRANCH  35  36
ENDBRANCH  32  35
ENDBRANCH   3  29
TORSDOF 10
