REMARK  5 active torsions:
REMARK  status: ('A' for Active; 'I' for Inactive)
REMARK    1  A    between atoms: N_2  and  C_16 
REMARK    2  A    between atoms: N_4  and  C_24 
REMARK    3  A    between atoms: N_4  and  C_25 
REMARK       I    between atoms: N_5  and  C_32 
REMARK    4  A    between atoms: C_16  and  C_18 
REMARK    5  A    between atoms: C_33  and  C_34 
ROOT
HETATM    1  N   UNK N   1      -5.218  -0.592  -0.815  0.00  0.00    -0.259 N 
HETATM    2  N   UNK N   1      -3.511   1.114  -0.746  0.00  0.00    -0.332 N 
ATOM      3  HN  UNK N   1      -2.859   0.422  -1.114  1.00  0.00     0.168 HD
HETATM    4  N   UNK N   1      -5.702   1.662  -0.072  0.00  0.00    -0.343 N 
ATOM      5  HN  UNK N   1      -6.685   1.409   0.030  1.00  0.00     0.167 HD
HETATM    6  C   UNK N   1      -1.966  -3.155  -0.071  0.00  0.00     0.013 A 
HETATM    7  C   UNK N   1      -3.720  -1.687   0.751  0.00  0.00     0.077 A 
HETATM    8  C   UNK N   1      -2.593  -2.451   0.967  0.00  0.00     0.075 A 
HETATM    9  C   UNK N   1      -4.251  -1.592  -0.550  0.00  0.00     0.022 A 
HETATM   10  C   UNK N   1      -2.560  -3.148  -1.356  0.00  0.00     0.021 A 
HETATM   11  C   UNK N   1      -3.709  -2.368  -1.587  0.00  0.00    -0.019 A 
HETATM   12  C   UNK N   1      -4.332  -0.972   1.934  0.00  0.00     0.016 A 
HETATM   13  C   UNK N   1      -4.819   0.756  -0.563  0.00  0.00     0.157 A 
HETATM   14  C   UNK N   1      -3.050   2.361  -0.455  0.00  0.00     0.047 A 
HETATM   15  C   UNK N   1      -3.948   3.284   0.105  0.00  0.00     0.047 A 
HETATM   16  C   UNK N   1      -5.283   2.907   0.284  0.00  0.00     0.093 A 
HETATM   17  H   UNK N   1      -3.633  -0.216   2.347  0.00  0.00     0.131 HD
ENDROOT
BRANCH   6  18
HETATM   18  N   UNK N   1      -0.685  -3.701   0.241  0.00  0.00    -0.330 N 
HETATM   19  H   UNK N   1      -0.395  -3.480   1.202  0.00  0.00     0.168 HD
BRANCH  18  20
HETATM   20  C   UNK N   1       0.309  -4.060  -0.628  0.00  0.00     0.229 A 
HETATM   21  O   UNK N   1       0.079  -4.257  -1.815  0.00  0.00    -0.272 OA
HETATM   22  C   UNK N   1       2.000  -3.785   1.204  0.00  0.00     0.101 A 
HETATM   23  C   UNK N   1       3.045  -3.025   1.698  0.00  0.00    -0.004 C 
HETATM   24  C   UNK N   1       1.693  -3.760  -0.172  0.00  0.00     0.022 A 
HETATM   25  C   UNK N   1       3.818  -2.244   0.832  0.00  0.00    -0.037 C 
HETATM   26  C   UNK N   1       3.634  -2.376  -0.560  0.00  0.00    -0.018 C 
HETATM   27  C   UNK N   1       2.573  -3.131  -1.061  0.00  0.00     0.029 C 
BRANCH  25  28
HETATM   28  C   UNK N   1       4.753  -1.208   1.412  0.00  0.00     0.310 C 
BRANCH  28  29
HETATM   29  N   UNK N   1       4.328   0.150   0.955  0.00  0.00     0.096 N 
HETATM   30  C   UNK N   1       4.220   1.123   2.071  0.00  0.00     0.303 C 
HETATM   31  C   UNK N   1       3.841   2.530   1.560  0.00  0.00     0.302 C 
HETATM   32  N   UNK N   1       4.829   2.971   0.560  0.00  0.00     0.087 N 
HETATM   33  C   UNK N   1       4.816   2.039  -0.575  0.00  0.00     0.302 C 
HETATM   34  C   UNK N   1       4.577   4.347   0.110  0.00  0.00     0.310 C 
HETATM   35  C   UNK N   1       5.248   0.660  -0.084  0.00  0.00     0.303 C 
ENDBRANCH  28  29
ENDBRANCH  25  28
ENDBRANCH  18  20
ENDBRANCH   6  18
BRANCH  14  36
HETATM   36  C   UNK N   1      -1.632   2.728  -0.802  0.00  0.00     0.006 A 
HETATM   37  C   UNK N   1      -0.885   1.904  -1.669  0.00  0.00     0.016 A 
HETATM   38  C   UNK N   1       0.404   2.274  -2.061  0.00  0.00     0.018 A 
HETATM   39  C   UNK N   1       0.955   3.457  -1.578  0.00  0.00     0.087 A 
HETATM   40  N   UNK N   1       0.244   4.239  -0.725  0.00  0.00    -0.374 N 
HETATM   41  C   UNK N   1      -1.019   3.912  -0.333  0.00  0.00     0.101 A 
ATOM     42  HN  UNK N   1       0.667   5.096  -0.369  1.00  0.00     0.164 HD
ENDBRANCH  14  36
TORSDOF 5
