REMARK  6 active torsions:
REMARK  status: ('A' for Active; 'I' for Inactive)
REMARK    1  A    between atoms: N_2  and  C_16 
REMARK       I    between atoms: N_4  and  C_24 
REMARK    2  A    between atoms: N_4  and  C_25 
REMARK    3  A    between atoms: N_5  and  C_27 
REMARK       I    between atoms: N_5  and  C_32 
REMARK    4  A    between atoms: C_16  and  C_18 
REMARK    5  A    between atoms: C_23  and  C_24 
REMARK    6  A    between atoms: C_33  and  C_34 
ROOT
HETATM    1  C   UNK N   1      -0.586  -1.260   0.784  0.00  0.00     0.043 A 
HETATM    2  C   UNK N   1      -1.332  -0.171   1.350  0.00  0.00    -0.008 A 
HETATM    3  C   UNK N   1      -2.764  -0.208   1.367  0.00  0.00     0.057 A 
HETATM    4  C   UNK N   1      -1.301  -2.353   0.244  0.00  0.00     0.030 A 
HETATM    5  C   UNK N   1      -0.572   1.043   1.876  0.00  0.00     0.053 C 
HETATM    6  C   UNK N   1      -3.417  -1.321   0.810  0.00  0.00     0.030 A 
HETATM    7  C   UNK N   1      -2.692  -2.372   0.259  0.00  0.00     0.005 A 
ENDROOT
BRANCH   1   8
HETATM    8  N   UNK N   1       0.863  -1.198   0.790  0.00  0.00    -0.322 N 
HETATM    9  C   UNK N   1       1.761  -2.023   0.155  0.00  0.00     0.256 C 
HETATM   10  O   UNK N   1       1.373  -2.937  -0.553  0.00  0.00    -0.267 OA
HETATM   11  H   UNK N   1       1.265  -0.425   1.309  0.00  0.00     0.169 HD
BRANCH   9  12
HETATM   12  C   UNK N   1       3.250  -1.784   0.269  0.00  0.00     0.032 A 
HETATM   13  C   UNK N   1       3.800  -0.820   1.152  0.00  0.00     0.017 A 
HETATM   14  C   UNK N   1       5.173  -0.600   1.203  0.00  0.00     0.010 A 
HETATM   15  C   UNK N   1       6.042  -1.330   0.391  0.00  0.00    -0.030 A 
HETATM   16  C   UNK N   1       5.523  -2.305  -0.472  0.00  0.00     0.010 A 
HETATM   17  C   UNK N   1       4.140  -2.530  -0.534  0.00  0.00     0.017 A 
BRANCH  15  18
HETATM   18  C   UNK N   1       7.518  -1.040   0.454  0.00  0.00     0.311 C 
BRANCH  18  19
HETATM   19  N   UNK N   1       7.767   0.350   0.016  0.00  0.00     0.096 N 
HETATM   20  C   UNK N   1       7.688   0.449  -1.459  0.00  0.00     0.303 C 
HETATM   21  C   UNK N   1       7.928   1.891  -1.911  0.00  0.00     0.302 C 
HETATM   22  N   UNK N   1       9.249   2.343  -1.438  0.00  0.00     0.087 N 
HETATM   23  C   UNK N   1       9.303   2.278   0.033  0.00  0.00     0.302 C 
HETATM   24  C   UNK N   1       9.526   3.706  -1.912  0.00  0.00     0.310 C 
HETATM   25  C   UNK N   1       9.077   0.832   0.493  0.00  0.00     0.303 C 
ENDBRANCH  18  19
ENDBRANCH  15  18
ENDBRANCH   9  12
ENDBRANCH   1   8
BRANCH   3  26
HETATM   26  N   UNK N   1      -3.512   0.863   1.971  0.00  0.00    -0.191 N 
HETATM   27  C   UNK N   1      -4.797   1.333   1.569  0.00  0.00     0.683 A 
HETATM   28  N   UNK N   1      -5.518   0.718   0.590  0.00  0.00    -0.191 N 
HETATM   29  N   UNK N   1      -5.253   2.498   2.103  0.00  0.00    -0.202 N 
HETATM   30  C   UNK N   1      -6.679   1.258   0.118  0.00  0.00     0.062 A 
ATOM     31  HN  UNK N   1      -5.183  -0.163   0.201  1.00  0.00     0.184 HD
HETATM   32  C   UNK N   1      -7.133   2.473   0.655  0.00  0.00     0.048 A 
HETATM   33  C   UNK N   1      -6.401   3.072   1.671  0.00  0.00     0.108 A 
ATOM     34  HN  UNK N   1      -4.718   2.949   2.845  1.00  0.00     0.183 HD
HETATM   35  H   UNK N   1      -3.053   1.438   2.685  0.00  0.00     0.184 HD
BRANCH  30  36
HETATM   36  C   UNK N   1      -7.441   0.554  -0.947  0.00  0.00     0.007 A 
HETATM   37  C   UNK N   1      -7.329  -0.839  -1.091  0.00  0.00     0.016 A 
HETATM   38  C   UNK N   1      -8.063  -1.500  -2.078  0.00  0.00     0.018 A 
HETATM   39  C   UNK N   1      -8.886  -0.765  -2.931  0.00  0.00     0.087 A 
HETATM   40  N   UNK N   1      -8.978   0.583  -2.793  0.00  0.00    -0.374 N 
HETATM   41  C   UNK N   1      -8.291   1.251  -1.829  0.00  0.00     0.101 A 
ATOM     42  HN  UNK N   1      -9.577   1.107  -3.430  1.00  0.00     0.164 HD
ENDBRANCH  30  36
ENDBRANCH   3  26
TORSDOF 6
