REMARK  6 active torsions:
REMARK  status: ('A' for Active; 'I' for Inactive)
REMARK    1  A    between atoms: N_4  and  C_18 
REMARK       I    between atoms: N_6  and  C_26 
REMARK    2  A    between atoms: N_6  and  C_27 
REMARK    3  A    between atoms: N_7  and  C_30 
REMARK       I    between atoms: N_7  and  C_34 
REMARK    4  A    between atoms: C_18  and  C_20 
REMARK    5  A    between atoms: C_25  and  C_26 
REMARK    6  A    between atoms: C_35  and  C_36 
ROOT
HETATM    1  C   UNK N   1      -2.085   2.616   0.070  0.00  0.00     0.037 A 
HETATM    2  C   UNK N   1      -3.260   1.845  -0.113  0.00  0.00     0.060 A 
HETATM    3  C   UNK N   1      -2.206   3.898   0.625  0.00  0.00     0.030 A 
HETATM    4  C   UNK N   1      -4.532   2.360   0.252  0.00  0.00     0.057 A 
HETATM    5  C   UNK N   1      -4.609   3.672   0.790  0.00  0.00    -0.035 A 
HETATM    6  C   UNK N   1      -3.442   4.416   0.979  0.00  0.00     0.011 A 
HETATM    7  C   UNK N   1      -5.927   4.291   1.178  0.00  0.00     0.050 C 
ENDROOT
BRANCH   1   8
HETATM    8  N   UNK N   1      -0.762   2.189  -0.306  0.00  0.00    -0.323 N 
HETATM    9  C   UNK N   1      -0.357   0.938  -0.701  0.00  0.00     0.256 C 
HETATM   10  O   UNK N   1      -1.140   0.002  -0.711  0.00  0.00    -0.267 OA
HETATM   11  H   UNK N   1      -0.038   2.909  -0.216  0.00  0.00     0.169 HD
BRANCH   9  12
HETATM   12  C   UNK N   1       1.079   0.680  -1.059  0.00  0.00     0.032 A 
HETATM   13  C   UNK N   1       1.971   1.734  -1.362  0.00  0.00     0.017 A 
HETATM   14  C   UNK N   1       3.308   1.474  -1.650  0.00  0.00     0.010 A 
HETATM   15  C   UNK N   1       3.801   0.165  -1.627  0.00  0.00    -0.025 A 
HETATM   16  C   UNK N   1       2.920  -0.894  -1.355  0.00  0.00     0.010 A 
HETATM   17  C   UNK N   1       1.569  -0.641  -1.087  0.00  0.00     0.017 A 
BRANCH  15  18
HETATM   18  C   UNK N   1       5.278  -0.081  -1.871  0.00  0.00     0.350 C 
BRANCH  18  19
HETATM   19  N   UNK N   1       6.014  -0.449  -0.631  0.00  0.00     0.022 N 
HETATM   20  O   UNK N   1       5.505  -1.612  -0.144  0.00  0.00    -0.064 OA
HETATM   21  C   UNK N   1       5.880   0.613   0.402  0.00  0.00     0.348 C 
HETATM   22  C   UNK N   1       6.705   0.295   1.662  0.00  0.00     0.348 C 
HETATM   23  N   UNK N   1       8.131   0.088   1.329  0.00  0.00     0.014 N 
HETATM   24  O   UNK N   1       8.643   1.244   0.829  0.00  0.00    -0.065 OA
HETATM   25  C   UNK N   1       8.270  -0.982   0.316  0.00  0.00     0.348 C 
HETATM   26  C   UNK N   1       8.896  -0.246   2.543  0.00  0.00     0.356 C 
HETATM   27  C   UNK N   1       7.446  -0.664  -0.950  0.00  0.00     0.348 C 
ENDBRANCH  18  19
ENDBRANCH  15  18
ENDBRANCH   9  12
ENDBRANCH   1   8
BRANCH   4  28
HETATM   28  N   UNK N   1      -5.744   1.609   0.052  0.00  0.00    -0.191 N 
HETATM   29  C   UNK N   1      -5.854   0.194  -0.087  0.00  0.00     0.683 A 
HETATM   30  N   UNK N   1      -4.809  -0.635   0.190  0.00  0.00    -0.191 N 
HETATM   31  N   UNK N   1      -7.054  -0.339  -0.437  0.00  0.00    -0.202 N 
HETATM   32  C   UNK N   1      -4.918  -1.989   0.078  0.00  0.00     0.062 A 
ATOM     33  HN  UNK N   1      -3.921  -0.231   0.489  1.00  0.00     0.184 HD
HETATM   34  C   UNK N   1      -6.154  -2.536  -0.310  0.00  0.00     0.048 A 
HETATM   35  C   UNK N   1      -7.220  -1.678  -0.556  0.00  0.00     0.108 A 
ATOM     36  HN  UNK N   1      -7.844   0.282  -0.614  1.00  0.00     0.183 HD
HETATM   37  H   UNK N   1      -6.635   2.124   0.040  0.00  0.00     0.184 HD
BRANCH  32  38
HETATM   38  C   UNK N   1      -3.733  -2.846   0.383  0.00  0.00     0.007 A 
HETATM   39  C   UNK N   1      -2.638  -2.307   1.083  0.00  0.00     0.016 A 
HETATM   40  C   UNK N   1      -1.530  -3.103   1.378  0.00  0.00     0.018 A 
HETATM   41  C   UNK N   1      -1.511  -4.433   0.962  0.00  0.00     0.087 A 
HETATM   42  N   UNK N   1      -2.566  -4.947   0.280  0.00  0.00    -0.374 N 
HETATM   43  C   UNK N   1      -3.664  -4.200  -0.012  0.00  0.00     0.101 A 
ATOM     44  HN  UNK N   1      -2.535  -5.921  -0.022  1.00  0.00     0.164 HD
ENDBRANCH  32  38
ENDBRANCH   4  28
TORSDOF 6
