REMARK  6 active torsions:
REMARK  status: ('A' for Active; 'I' for Inactive)
REMARK    1  A    between atoms: N_2  and  C_16 
REMARK       I    between atoms: N_4  and  C_24 
REMARK    2  A    between atoms: N_4  and  C_25 
REMARK    3  A    between atoms: N_5  and  C_28 
REMARK       I    between atoms: N_5  and  C_32 
REMARK    4  A    between atoms: C_16  and  C_18 
REMARK    5  A    between atoms: C_23  and  C_24 
REMARK    6  A    between atoms: C_33  and  C_34 
ROOT
HETATM    1  C   UNK N   1      -0.477  -1.139   0.161  0.00  0.00     0.035 A 
HETATM    2  C   UNK N   1      -2.101  -2.889   0.531  0.00  0.00    -0.033 A 
HETATM    3  C   UNK N   1      -0.799  -2.403   0.654  0.00  0.00     0.038 A 
HETATM    4  C   UNK N   1      -3.080  -2.111  -0.086  0.00  0.00     0.055 A 
HETATM    5  C   UNK N   1      -1.456  -0.361  -0.456  0.00  0.00     0.032 A 
HETATM    6  C   UNK N   1      -2.758  -0.847  -0.579  0.00  0.00     0.033 A 
HETATM    7  C   UNK N   1      -2.418  -4.247   1.068  0.00  0.00     0.050 C 
ENDROOT
BRANCH   1   8
HETATM    8  N   UNK N   1       0.845  -0.645   0.286  0.00  0.00    -0.323 N 
HETATM    9  C   UNK N   1       1.360   0.587  -0.141  0.00  0.00     0.256 C 
HETATM   10  O   UNK N   1       0.708   1.470  -0.719  0.00  0.00    -0.267 OA
HETATM   11  H   UNK N   1       1.483  -1.311   0.713  0.00  0.00     0.169 HD
BRANCH   9  12
HETATM   12  C   UNK N   1       2.764   0.824   0.155  0.00  0.00     0.032 A 
HETATM   13  C   UNK N   1       3.362   0.197   1.248  0.00  0.00     0.017 A 
HETATM   14  C   UNK N   1       4.709   0.424   1.532  0.00  0.00     0.010 A 
HETATM   15  C   UNK N   1       5.458   1.278   0.722  0.00  0.00    -0.030 A 
HETATM   16  C   UNK N   1       4.860   1.906  -0.371  0.00  0.00     0.010 A 
HETATM   17  C   UNK N   1       3.513   1.679  -0.654  0.00  0.00     0.017 A 
BRANCH  15  18
HETATM   18  C   UNK N   1       6.911   1.524   1.028  0.00  0.00     0.311 C 
BRANCH  18  19
HETATM   19  N   UNK N   1       7.790   0.790   0.120  0.00  0.00     0.096 N 
HETATM   20  C   UNK N   1       7.857  -0.628   0.491  0.00  0.00     0.303 C 
HETATM   21  C   UNK N   1       8.780  -1.398  -0.460  0.00  0.00     0.302 C 
HETATM   22  N   UNK N   1      10.124  -0.809  -0.476  0.00  0.00     0.087 N 
HETATM   23  C   UNK N   1      10.057   0.610  -0.846  0.00  0.00     0.302 C 
HETATM   24  C   UNK N   1      11.002  -1.542  -1.386  0.00  0.00     0.310 C 
HETATM   25  C   UNK N   1       9.134   1.380   0.105  0.00  0.00     0.303 C 
ENDBRANCH  18  19
ENDBRANCH  15  18
ENDBRANCH   9  12
ENDBRANCH   1   8
BRANCH   4  26
HETATM   26  N   UNK N   1      -4.403  -2.587  -0.219  0.00  0.00    -0.191 N 
HETATM   27  C   UNK N   1      -5.649  -1.935  -0.262  0.00  0.00     0.683 A 
HETATM   28  N   UNK N   1      -5.630  -0.592  -0.163  0.00  0.00    -0.191 N 
HETATM   29  N   UNK N   1      -6.734  -2.720  -0.402  0.00  0.00    -0.202 N 
HETATM   30  C   UNK N   1      -6.841   0.000  -0.211  0.00  0.00     0.062 A 
ATOM     31  HN  UNK N   1      -4.764  -0.062  -0.058  1.00  0.00     0.184 HD
HETATM   32  C   UNK N   1      -8.027  -0.691  -0.352  0.00  0.00     0.048 A 
HETATM   33  C   UNK N   1      -7.912  -2.063  -0.443  0.00  0.00     0.108 A 
ATOM     34  HN  UNK N   1      -6.670  -3.736  -0.471  1.00  0.00     0.183 HD
HETATM   35  H   UNK N   1      -4.500  -3.596  -0.197  0.00  0.00     0.184 HD
BRANCH  30  36
HETATM   36  C   UNK N   1      -6.825   1.440  -0.105  0.00  0.00     0.007 A 
HETATM   37  C   UNK N   1      -6.144   2.219  -1.034  0.00  0.00     0.016 A 
HETATM   38  C   UNK N   1      -6.146   3.604  -0.905  0.00  0.00     0.018 A 
HETATM   39  C   UNK N   1      -6.838   4.155   0.161  0.00  0.00     0.087 A 
HETATM   40  N   UNK N   1      -7.510   3.430   1.083  0.00  0.00    -0.374 N 
HETATM   41  C   UNK N   1      -7.486   2.088   0.926  0.00  0.00     0.101 A 
ATOM     42  HN  UNK N   1      -8.008   3.872   1.856  1.00  0.00     0.164 HD
ENDBRANCH  30  36
ENDBRANCH   4  26
TORSDOF 6
