REMARK  6 active torsions:
REMARK  status: ('A' for Active; 'I' for Inactive)
REMARK    1  A    between atoms: N_3  and  C_17 
REMARK       I    between atoms: N_5  and  C_25 
REMARK    2  A    between atoms: N_5  and  C_26 
REMARK    3  A    between atoms: N_6  and  C_28 
REMARK       I    between atoms: N_6  and  C_33 
REMARK    4  A    between atoms: C_17  and  C_18 
REMARK    5  A    between atoms: C_24  and  C_25 
REMARK    6  A    between atoms: C_34  and  C_35 
ROOT
HETATM    1  C   UNK N   1       1.899  -2.619   0.090  0.00  0.00     0.037 A 
HETATM    2  C   UNK N   1       3.060  -1.832  -0.108  0.00  0.00     0.060 A 
HETATM    3  C   UNK N   1       4.344  -2.326   0.246  0.00  0.00     0.057 A 
HETATM    4  C   UNK N   1       2.045  -3.897   0.648  0.00  0.00     0.030 A 
HETATM    5  C   UNK N   1       4.445  -3.635   0.789  0.00  0.00    -0.035 A 
HETATM    6  C   UNK N   1       3.291  -4.395   0.993  0.00  0.00     0.011 A 
HETATM    7  C   UNK N   1       5.776  -4.232   1.167  0.00  0.00     0.050 C 
ENDROOT
BRANCH   1   8
HETATM    8  N   UNK N   1       0.566  -2.213  -0.274  0.00  0.00    -0.323 N 
HETATM    9  C   UNK N   1       0.139  -0.969  -0.668  0.00  0.00     0.256 C 
HETATM   10  O   UNK N   1       0.907  -0.022  -0.688  0.00  0.00    -0.267 OA
HETATM   11  H   UNK N   1      -0.147  -2.944  -0.175  0.00  0.00     0.169 HD
BRANCH   9  12
HETATM   12  C   UNK N   1      -1.305  -0.732  -1.011  0.00  0.00     0.032 A 
HETATM   13  C   UNK N   1      -2.186  -1.798  -1.300  0.00  0.00     0.017 A 
HETATM   14  C   UNK N   1      -3.529  -1.557  -1.577  0.00  0.00     0.010 A 
HETATM   15  C   UNK N   1      -4.039  -0.254  -1.554  0.00  0.00    -0.025 A 
HETATM   16  C   UNK N   1      -3.169   0.817  -1.295  0.00  0.00     0.010 A 
HETATM   17  C   UNK N   1      -1.813   0.583  -1.039  0.00  0.00     0.017 A 
BRANCH  15  18
HETATM   18  C   UNK N   1      -5.521  -0.028  -1.786  0.00  0.00     0.350 C 
BRANCH  18  19
HETATM   19  N   UNK N   1      -6.252   0.333  -0.541  0.00  0.00     0.021 N 
HETATM   20  O   UNK N   1      -5.751   1.499  -0.056  0.00  0.00    -0.064 OA
HETATM   21  C   UNK N   1      -7.688   0.535  -0.851  0.00  0.00     0.342 C 
HETATM   22  C   UNK N   1      -8.505   0.828   0.419  0.00  0.00     0.308 C 
HETATM   23  N   UNK N   1      -8.349  -0.280   1.377  0.00  0.00     0.088 N 
HETATM   24  C   UNK N   1      -6.931  -0.429   1.745  0.00  0.00     0.308 C 
HETATM   25  C   UNK N   1      -9.168  -0.051   2.576  0.00  0.00     0.310 C 
HETATM   26  C   UNK N   1      -6.101  -0.729   0.490  0.00  0.00     0.342 C 
ENDBRANCH  18  19
ENDBRANCH  15  18
ENDBRANCH   9  12
ENDBRANCH   1   8
BRANCH   3  27
HETATM   27  N   UNK N   1       5.542  -1.559   0.031  0.00  0.00    -0.191 N 
HETATM   28  C   UNK N   1       5.630  -0.143  -0.118  0.00  0.00     0.683 A 
HETATM   29  N   UNK N   1       4.577   0.672   0.166  0.00  0.00    -0.191 N 
HETATM   30  N   UNK N   1       6.818   0.405  -0.485  0.00  0.00    -0.202 N 
HETATM   31  C   UNK N   1       4.665   2.028   0.045  0.00  0.00     0.062 A 
ATOM     32  HN  UNK N   1       3.698   0.258   0.477  1.00  0.00     0.184 HD
HETATM   33  C   UNK N   1       5.888   2.590  -0.361  0.00  0.00     0.048 A 
HETATM   34  C   UNK N   1       6.964   1.746  -0.614  0.00  0.00     0.108 A 
ATOM     35  HN  UNK N   1       7.615  -0.205  -0.667  1.00  0.00     0.183 HD
HETATM   36  H   UNK N   1       6.441  -2.060   0.013  0.00  0.00     0.184 HD
BRANCH  31  37
HETATM   37  C   UNK N   1       3.471   2.869   0.359  0.00  0.00     0.007 A 
HETATM   38  C   UNK N   1       2.390   2.316   1.070  0.00  0.00     0.016 A 
HETATM   39  C   UNK N   1       1.274   3.097   1.373  0.00  0.00     0.018 A 
HETATM   40  C   UNK N   1       1.233   4.426   0.955  0.00  0.00     0.087 A 
HETATM   41  N   UNK N   1       2.274   4.954   0.262  0.00  0.00    -0.374 N 
HETATM   42  C   UNK N   1       3.380   4.221  -0.039  0.00  0.00     0.101 A 
ATOM     43  HN  UNK N   1       2.226   5.926  -0.041  1.00  0.00     0.164 HD
ENDBRANCH  31  37
ENDBRANCH   3  27
TORSDOF 6
