REMARK  6 active torsions:
REMARK  status: ('A' for Active; 'I' for Inactive)
REMARK    1  A    between atoms: N_2  and  C_16 
REMARK       I    between atoms: N_4  and  C_24 
REMARK    2  A    between atoms: N_4  and  C_25 
REMARK    3  A    between atoms: N_5  and  C_27 
REMARK       I    between atoms: N_5  and  C_32 
REMARK    4  A    between atoms: C_16  and  C_18 
REMARK    5  A    between atoms: C_21  and  C_24 
REMARK    6  A    between atoms: C_33  and  C_34 
ROOT
HETATM    1  C   UNK N   1      -1.875  -2.536   0.035  0.00  0.00     0.037 A 
HETATM    2  C   UNK N   1      -2.518  -1.349   0.386  0.00  0.00     0.060 A 
HETATM    3  C   UNK N   1      -3.912  -1.288   0.398  0.00  0.00     0.057 A 
HETATM    4  C   UNK N   1      -4.662  -2.414   0.060  0.00  0.00    -0.035 A 
HETATM    5  C   UNK N   1      -2.626  -3.662  -0.303  0.00  0.00     0.030 A 
HETATM    6  C   UNK N   1      -4.019  -3.601  -0.291  0.00  0.00     0.011 A 
HETATM    7  C   UNK N   1      -6.156  -2.377   0.064  0.00  0.00     0.050 C 
ENDROOT
BRANCH   1   8
HETATM    8  N   UNK N   1      -0.460  -2.598   0.021  0.00  0.00    -0.323 N 
HETATM    9  C   UNK N   1       0.363  -3.687  -0.300  0.00  0.00     0.256 C 
HETATM   10  O   UNK N   1      -0.042  -4.811  -0.637  0.00  0.00    -0.267 OA
HETATM   11  H   UNK N   1      -0.020  -1.708   0.235  0.00  0.00     0.169 HD
BRANCH   9  12
HETATM   12  C   UNK N   1       1.795  -3.437  -0.250  0.00  0.00     0.032 A 
HETATM   13  C   UNK N   1       2.301  -2.449   0.594  0.00  0.00     0.026 A 
HETATM   14  C   UNK N   1       3.674  -2.209   0.641  0.00  0.00    -0.029 A 
HETATM   15  C   UNK N   1       4.541  -2.958  -0.155  0.00  0.00     0.009 A 
HETATM   16  C   UNK N   1       4.035  -3.946  -0.999  0.00  0.00     0.002 A 
HETATM   17  C   UNK N   1       2.661  -4.186  -1.047  0.00  0.00     0.017 A 
BRANCH  14  18
HETATM   18  C   UNK N   1       4.222  -1.142   1.551  0.00  0.00     0.311 C 
BRANCH  18  19
HETATM   19  N   UNK N   1       4.000   0.199   1.013  0.00  0.00     0.096 N 
HETATM   20  C   UNK N   1       4.957   0.495  -0.060  0.00  0.00     0.303 C 
HETATM   21  C   UNK N   1       4.726   1.901  -0.625  0.00  0.00     0.302 C 
HETATM   22  N   UNK N   1       4.818   2.911   0.436  0.00  0.00     0.087 N 
HETATM   23  C   UNK N   1       3.862   2.615   1.510  0.00  0.00     0.302 C 
HETATM   24  C   UNK N   1       4.594   4.251  -0.103  0.00  0.00     0.310 C 
HETATM   25  C   UNK N   1       4.092   1.209   2.074  0.00  0.00     0.303 C 
ENDBRANCH  18  19
ENDBRANCH  14  18
ENDBRANCH   9  12
ENDBRANCH   1   8
BRANCH   3  26
HETATM   26  N   UNK N   1      -4.546  -0.078   0.757  0.00  0.00    -0.191 N 
HETATM   27  C   UNK N   1      -4.170   1.271   0.621  0.00  0.00     0.683 A 
HETATM   28  N   UNK N   1      -2.979   1.508   0.038  0.00  0.00    -0.191 N 
HETATM   29  N   UNK N   1      -5.040   2.188   1.086  0.00  0.00    -0.202 N 
HETATM   30  C   UNK N   1      -2.652   2.812  -0.079  0.00  0.00     0.062 A 
ATOM     31  HN  UNK N   1      -2.370   0.758  -0.290  1.00  0.00     0.184 HD
HETATM   32  C   UNK N   1      -3.455   3.846   0.356  0.00  0.00     0.048 A 
HETATM   33  C   UNK N   1      -4.650   3.470   0.937  0.00  0.00     0.108 A 
ATOM     34  HN  UNK N   1      -5.928   1.931   1.518  1.00  0.00     0.183 HD
HETATM   35  H   UNK N   1      -5.494  -0.178   1.105  0.00  0.00     0.184 HD
BRANCH  30  36
HETATM   36  C   UNK N   1      -1.376   3.070  -0.703  0.00  0.00     0.007 A 
HETATM   37  C   UNK N   1      -0.856   2.202  -1.657  0.00  0.00     0.016 A 
HETATM   38  C   UNK N   1       0.375   2.477  -2.241  0.00  0.00     0.018 A 
HETATM   39  C   UNK N   1       1.042   3.623  -1.840  0.00  0.00     0.087 A 
HETATM   40  N   UNK N   1       0.568   4.490  -0.917  0.00  0.00    -0.374 N 
HETATM   41  C   UNK N   1      -0.631   4.190  -0.371  0.00  0.00     0.101 A 
ATOM     42  HN  UNK N   1       1.088   5.325  -0.647  1.00  0.00     0.164 HD
ENDBRANCH  30  36
ENDBRANCH   3  26
TORSDOF 6
