REMARK  7 active torsions:
REMARK  status: ('A' for Active; 'I' for Inactive)
REMARK    1  A    between atoms: N_3  and  C_17 
REMARK    2  A    between atoms: N_4  and  C_19 
REMARK       I    between atoms: N_5  and  C_25 
REMARK    3  A    between atoms: N_5  and  C_26 
REMARK    4  A    between atoms: N_6  and  C_27 
REMARK       I    between atoms: N_6  and  C_33 
REMARK    5  A    between atoms: C_17  and  C_18 
REMARK    6  A    between atoms: C_24  and  C_25 
REMARK    7  A    between atoms: C_34  and  C_35 
ROOT
HETATM    1  C   UNK N   1      -2.030  -2.613  -0.119  0.00  0.00     0.037 A 
HETATM    2  C   UNK N   1      -4.472  -2.299  -0.308  0.00  0.00     0.057 A 
HETATM    3  C   UNK N   1      -3.188  -1.814   0.064  0.00  0.00     0.060 A 
HETATM    4  C   UNK N   1      -4.576  -3.606  -0.857  0.00  0.00    -0.035 A 
HETATM    5  C   UNK N   1      -2.180  -3.889  -0.680  0.00  0.00     0.030 A 
HETATM    6  C   UNK N   1      -3.425  -4.375  -1.045  0.00  0.00     0.011 A 
HETATM    7  C   UNK N   1      -5.906  -4.192  -1.257  0.00  0.00     0.050 C 
ENDROOT
BRANCH   1   8
HETATM    8  N   UNK N   1      -0.698  -2.222   0.266  0.00  0.00    -0.323 N 
HETATM    9  C   UNK N   1      -0.259  -0.978   0.646  0.00  0.00     0.256 C 
HETATM   10  O   UNK N   1      -1.012  -0.019   0.630  0.00  0.00    -0.267 OA
HETATM   11  H   UNK N   1       0.006  -2.965   0.194  0.00  0.00     0.169 HD
BRANCH   9  12
HETATM   12  C   UNK N   1       1.182  -0.759   1.018  0.00  0.00     0.032 A 
HETATM   13  C   UNK N   1       2.036  -1.833   1.363  0.00  0.00     0.017 A 
HETATM   14  C   UNK N   1       3.376  -1.608   1.676  0.00  0.00     0.010 A 
HETATM   15  C   UNK N   1       3.906  -0.315   1.633  0.00  0.00    -0.030 A 
HETATM   16  C   UNK N   1       3.069   0.763   1.307  0.00  0.00     0.010 A 
HETATM   17  C   UNK N   1       1.716   0.546   1.019  0.00  0.00     0.017 A 
BRANCH  15  18
HETATM   18  C   UNK N   1       5.370  -0.086   1.914  0.00  0.00     0.311 C 
BRANCH  18  19
HETATM   19  N   UNK N   1       6.067   0.298   0.668  0.00  0.00     0.095 N 
HETATM   20  C   UNK N   1       7.378   0.915   0.970  0.00  0.00     0.292 C 
HETATM   21  C   UNK N   1       8.065   1.349  -0.332  0.00  0.00     0.155 C 
HETATM   22  N   UNK N   1       8.158   0.190  -1.206  0.00  0.00    -0.356 N 
HETATM   23  C   UNK N   1       6.919  -0.495  -1.520  0.00  0.00     0.155 C 
HETATM   24  C   UNK N   1       6.247  -0.893  -0.205  0.00  0.00     0.292 C 
BRANCH  22  25
HETATM   25  C   UNK N   1       9.349  -0.270  -1.688  0.00  0.00     0.350 C 
HETATM   26  O   UNK N   1      10.398   0.294  -1.417  0.00  0.00    -0.284 OA
ENDBRANCH  22  25
ENDBRANCH  18  19
ENDBRANCH  15  18
ENDBRANCH   9  12
ENDBRANCH   1   8
BRANCH   2  27
HETATM   27  N   UNK N   1      -5.671  -1.528  -0.103  0.00  0.00    -0.191 N 
HETATM   28  C   UNK N   1      -5.758  -0.114   0.062  0.00  0.00     0.683 A 
HETATM   29  N   UNK N   1      -4.700   0.702  -0.198  0.00  0.00    -0.191 N 
HETATM   30  N   UNK N   1      -6.950   0.431   0.422  0.00  0.00    -0.202 N 
HETATM   31  C   UNK N   1      -4.789   2.056  -0.065  0.00  0.00     0.062 A 
ATOM     32  HN  UNK N   1      -3.818   0.290  -0.502  1.00  0.00     0.184 HD
HETATM   33  C   UNK N   1      -6.016   2.616   0.333  0.00  0.00     0.048 A 
HETATM   34  C   UNK N   1      -7.096   1.770   0.565  0.00  0.00     0.108 A 
ATOM     35  HN  UNK N   1      -7.750  -0.180   0.587  1.00  0.00     0.183 HD
HETATM   36  H   UNK N   1      -6.572  -2.026  -0.103  0.00  0.00     0.184 HD
BRANCH  31  37
HETATM   37  C   UNK N   1      -3.589   2.897  -0.360  0.00  0.00     0.007 A 
HETATM   38  C   UNK N   1      -2.496   2.340  -1.048  0.00  0.00     0.016 A 
HETATM   39  C   UNK N   1      -1.374   3.118  -1.333  0.00  0.00     0.018 A 
HETATM   40  C   UNK N   1      -1.339   4.449  -0.921  0.00  0.00     0.087 A 
HETATM   41  N   UNK N   1      -2.393   4.981  -0.251  0.00  0.00    -0.374 N 
HETATM   42  C   UNK N   1      -3.505   4.251   0.032  0.00  0.00     0.101 A 
ATOM     43  HN  UNK N   1      -2.351   5.956   0.047  1.00  0.00     0.164 HD
ENDBRANCH  31  37
ENDBRANCH   2  27
TORSDOF 7
