REMARK  2 active torsions:
REMARK  status: ('A' for Active; 'I' for Inactive)
REMARK    1  A    between atoms: N_3  and  C_9 
REMARK    2  A    between atoms: N_5  and  C_10 
REMARK       I    between atoms: N_6  and  C_15 
REMARK       I    between atoms: N_7  and  C_15 
ROOT
HETATM    1  C   UNK N   1       0.275   0.355  -0.324  0.00  0.00    -0.002 A 
HETATM    2  C   UNK N   1      -0.829  -0.520  -0.442  0.00  0.00     0.057 A 
HETATM    3  C   UNK N   1       1.534  -0.168   0.037  0.00  0.00     0.111 A 
HETATM    4  C   UNK N   1      -0.663  -1.892  -0.215  0.00  0.00     0.030 A 
HETATM    5  C   UNK N   1       0.133   1.837  -0.574  0.00  0.00     0.053 C 
HETATM    6  C   UNK N   1       1.683  -1.544   0.263  0.00  0.00     0.037 A 
HETATM    7  C   UNK N   1       0.588  -2.401   0.135  0.00  0.00     0.005 A 
ENDROOT
BRANCH   2   8
HETATM    8  N   UNK N   1      -2.120  -0.021  -0.758  0.00  0.00    -0.192 N 
HETATM    9  C   UNK N   1      -2.949   0.401   0.142  0.00  0.00     0.669 C 
HETATM   10  N   UNK N   1      -4.210   0.904  -0.261  0.00  0.00    -0.235 N 
HETATM   11  N   UNK N   1      -2.619   0.376   1.530  0.00  0.00    -0.235 N 
HETATM   12  H   UNK N   1      -4.464   0.940  -1.259  0.00  0.00     0.174 HD
HETATM   13  H   UNK N   1      -4.881   1.248   0.442  0.00  0.00     0.174 HD
HETATM   14  H   UNK N   1      -1.714   0.018   1.867  0.00  0.00     0.174 HD
HETATM   15  H   UNK N   1      -3.297   0.718   2.225  0.00  0.00     0.174 HD
ATOM     16  HN  UNK N   1      -2.407   0.005  -1.737  1.00  0.00     0.184 HD
ENDBRANCH   2   8
BRANCH   3  17
HETATM   17  N   UNK N   1       2.649   0.693   0.164  0.00  0.00    -0.115 N 
HETATM   18  O   UNK N   1       3.503   0.800  -0.828  0.00  0.00    -0.532 OA
HETATM   19  O   UNK N   1       2.940   1.127   1.240  0.00  0.00    -0.532 OA
ENDBRANCH   3  17
TORSDOF 2
