REMARK  8 active torsions:
REMARK  status: ('A' for Active; 'I' for Inactive)
REMARK    1  A    between atoms: O_1  and  C_26 
REMARK    2  A    between atoms: O_3  and  C_27 
REMARK    3  A    between atoms: N_5  and  C_11 
REMARK    4  A    between atoms: N_6  and  C_13 
REMARK    5  A    between atoms: C_11  and  C_14 
REMARK    6  A    between atoms: C_13  and  C_15 
REMARK    7  A    between atoms: C_22  and  C_26 
REMARK    8  A    between atoms: C_25  and  C_27 
ROOT
HETATM    1  N   UNK N   1       1.229   0.986   0.081  0.00  0.00    -0.064 N 
HETATM    2  N   UNK N   1      -1.340  -0.193  -0.772  0.00  0.00     0.096 N 
HETATM    3  C   UNK N   1       1.072  -0.436  -0.345  0.00  0.00     0.267 C 
HETATM    4  C   UNK N   1      -0.091   1.485   0.571  0.00  0.00     0.267 C 
HETATM    5  C   UNK N   1      -0.068  -0.649  -1.349  0.00  0.00     0.300 C 
HETATM    6  C   UNK N   1      -1.240   1.243  -0.426  0.00  0.00     0.300 C 
HETATM    7  C   UNK N   1       1.720   1.827  -1.047  0.00  0.00     0.273 C 
ENDROOT
BRANCH   1   8
HETATM    8  C   UNK N   1       2.205   1.110   1.218  0.00  0.00     0.275 C 
BRANCH   8   9
HETATM    9  C   UNK N   1       3.605   0.595   0.913  0.00  0.00    -0.032 A 
HETATM   10  C   UNK N   1       4.654   1.497   0.672  0.00  0.00     0.010 A 
HETATM   11  C   UNK N   1       5.931   1.025   0.348  0.00  0.00     0.019 A 
HETATM   12  C   UNK N   1       6.178  -0.358   0.269  0.00  0.00     0.037 A 
HETATM   13  C   UNK N   1       5.136  -1.255   0.542  0.00  0.00     0.019 A 
HETATM   14  C   UNK N   1       3.867  -0.785   0.867  0.00  0.00     0.010 A 
BRANCH  12  15
HETATM   15  C   UNK N   1       7.519  -0.872  -0.102  0.00  0.00     0.176 C 
HETATM   16  O   UNK N   1       8.433  -0.099  -0.340  0.00  0.00    -0.646 OA
BRANCH  15  17
HETATM   17  O   UNK N   1       7.728  -2.205  -0.194  0.00  0.00    -0.773 OA
HETATM   18  H   UNK N   1       8.590  -2.562  -0.448  0.00  0.00     0.167 HD
ENDBRANCH  15  17
ENDBRANCH  12  15
ENDBRANCH   8   9
ENDBRANCH   1   8
BRANCH   2  19
HETATM   19  C   UNK N   1      -2.434  -0.413  -1.738  0.00  0.00     0.311 C 
BRANCH  19  20
HETATM   20  C   UNK N   1      -3.764  -0.369  -1.041  0.00  0.00    -0.030 A 
HETATM   21  C   UNK N   1      -4.149  -1.414  -0.188  0.00  0.00     0.010 A 
HETATM   22  C   UNK N   1      -5.393  -1.381   0.449  0.00  0.00     0.019 A 
HETATM   23  C   UNK N   1      -6.260  -0.288   0.256  0.00  0.00     0.037 A 
HETATM   24  C   UNK N   1      -5.862   0.760  -0.590  0.00  0.00     0.019 A 
HETATM   25  C   UNK N   1      -4.629   0.715  -1.241  0.00  0.00     0.010 A 
BRANCH  23  26
HETATM   26  C   UNK N   1      -7.578  -0.238   0.933  0.00  0.00     0.176 C 
HETATM   27  O   UNK N   1      -7.940  -1.157   1.652  0.00  0.00    -0.646 OA
BRANCH  26  28
HETATM   28  O   UNK N   1      -8.388   0.831   0.756  0.00  0.00    -0.773 OA
HETATM   29  H   UNK N   1      -9.250   0.885   1.192  0.00  0.00     0.167 HD
ENDBRANCH  26  28
ENDBRANCH  23  26
ENDBRANCH  19  20
ENDBRANCH   2  19
TORSDOF 8
