REMARK  1 active torsions:
REMARK  status: ('A' for Active; 'I' for Inactive)
REMARK    1  A    between atoms: C_4  and  C_5 
ROOT
HETATM    1  N   UNK N   1      -1.776   1.215   0.000  0.00  0.00    -0.374 N 
ATOM      2  HN  UNK N   1      -2.258   2.114   0.000  1.00  0.00     0.164 HD
HETATM    3  C   UNK N   1       0.275  -0.034  -0.000  0.00  0.00     0.025 A 
HETATM    4  C   UNK N   1      -0.474  -1.225  -0.000  0.00  0.00     0.018 A 
HETATM    5  C   UNK N   1      -0.419   1.192   0.000  0.00  0.00     0.102 A 
HETATM    6  C   UNK N   1      -1.869  -1.169  -0.000  0.00  0.00     0.018 A 
HETATM    7  C   UNK N   1      -2.508   0.071   0.000  0.00  0.00     0.087 A 
ENDROOT
BRANCH   3   8
HETATM    8  C   UNK N   1       1.763  -0.070  -0.000  0.00  0.00     0.157 C 
HETATM    9  O   UNK N   1       2.351  -1.141  -0.000  0.00  0.00    -0.293 OA
HETATM   10  C   UNK N   1       2.561   1.202  -0.000  0.00  0.00     0.097 C 
ENDBRANCH   3   8
TORSDOF 1
