REMARK  4 active torsions:
REMARK  status: ('A' for Active; 'I' for Inactive)
REMARK    1  A    between atoms: N_2  and  C_10 
REMARK       I    between atoms: N_2  and  C_19 
REMARK    2  A    between atoms: N_3  and  C_12 
REMARK       I    between atoms: N_3  and  C_18 
REMARK    3  A    between atoms: C_17  and  C_18 
REMARK    4  A    between atoms: C_23  and  C_26 
ROOT
HETATM    1  C   UNK N   1      -2.243  -2.464  -0.009  0.00  0.00     0.057 A 
HETATM    2  C   UNK N   1      -2.333  -3.787  -0.517  0.00  0.00    -0.035 A 
HETATM    3  C   UNK N   1       0.212  -2.574  -0.259  0.00  0.00     0.037 A 
HETATM    4  C   UNK N   1      -0.959  -1.870   0.124  0.00  0.00     0.060 A 
HETATM    5  C   UNK N   1      -1.175  -4.467  -0.899  0.00  0.00     0.011 A 
HETATM    6  C   UNK N   1       0.071  -3.872  -0.771  0.00  0.00     0.030 A 
HETATM    7  C   UNK N   1      -3.660  -4.486  -0.671  0.00  0.00     0.050 C 
ENDROOT
BRANCH   1   8
HETATM    8  N   UNK N   1      -3.446  -1.781   0.392  0.00  0.00    -0.191 N 
HETATM    9  C   UNK N   1      -3.617  -0.374   0.548  0.00  0.00     0.683 A 
HETATM   10  N   UNK N   1      -2.686   0.513   0.103  0.00  0.00    -0.191 N 
HETATM   11  N   UNK N   1      -4.771   0.089   1.096  0.00  0.00    -0.202 N 
HETATM   12  C   UNK N   1      -2.856   1.860   0.233  0.00  0.00     0.062 A 
ATOM     13  HN  UNK N   1      -1.837   0.161  -0.341  1.00  0.00     0.184 HD
HETATM   14  C   UNK N   1      -4.040   2.336   0.824  0.00  0.00     0.048 A 
HETATM   15  C   UNK N   1      -4.996   1.417   1.244  0.00  0.00     0.108 A 
ATOM     16  HN  UNK N   1      -5.482  -0.576   1.402  1.00  0.00     0.183 HD
HETATM   17  H   UNK N   1      -4.291  -2.347   0.554  0.00  0.00     0.184 HD
BRANCH  12  18
HETATM   18  C   UNK N   1      -1.791   2.782  -0.266  0.00  0.00     0.007 A 
HETATM   19  C   UNK N   1      -0.791   2.297  -1.129  0.00  0.00     0.016 A 
HETATM   20  C   UNK N   1       0.203   3.153  -1.605  0.00  0.00     0.018 A 
HETATM   21  C   UNK N   1       0.205   4.489  -1.209  0.00  0.00     0.087 A 
HETATM   22  N   UNK N   1      -0.756   4.951  -0.369  0.00  0.00    -0.374 N 
HETATM   23  C   UNK N   1      -1.744   4.144   0.103  0.00  0.00     0.101 A 
ATOM     24  HN  UNK N   1      -0.737   5.930  -0.084  1.00  0.00     0.164 HD
ENDBRANCH  12  18
ENDBRANCH   1   8
BRANCH   3  25
HETATM   25  N   UNK N   1       1.555  -2.061  -0.142  0.00  0.00    -0.323 N 
HETATM   26  C   UNK N   1       1.950  -0.789   0.194  0.00  0.00     0.256 C 
HETATM   27  O   UNK N   1       1.124   0.083   0.405  0.00  0.00    -0.267 OA
HETATM   28  H   UNK N   1       2.289  -2.733  -0.382  0.00  0.00     0.169 HD
BRANCH  26  29
HETATM   29  C   UNK N   1       3.411  -0.421   0.254  0.00  0.00     0.032 A 
HETATM   30  C   UNK N   1       3.782   0.938   0.339  0.00  0.00     0.017 A 
HETATM   31  C   UNK N   1       5.131   1.311   0.362  0.00  0.00     0.007 A 
HETATM   32  C   UNK N   1       6.137   0.338   0.309  0.00  0.00    -0.062 A 
HETATM   33  C   UNK N   1       5.782  -1.014   0.246  0.00  0.00     0.007 A 
HETATM   34  C   UNK N   1       7.581   0.745   0.314  0.00  0.00     0.048 C 
HETATM   35  C   UNK N   1       4.440  -1.393   0.219  0.00  0.00     0.017 A 
ENDBRANCH  26  29
ENDBRANCH   3  25
TORSDOF 4
