REMARK  7 active torsions:
REMARK  status: ('A' for Active; 'I' for Inactive)
REMARK    1  A    between atoms: O_2  and  N_12 
REMARK    2  A    between atoms: N_4  and  C_17 
REMARK       I    between atoms: N_6  and  C_25 
REMARK    3  A    between atoms: N_6  and  C_26 
REMARK    4  A    between atoms: N_7  and  C_27 
REMARK       I    between atoms: N_7  and  C_33 
REMARK    5  A    between atoms: C_17  and  C_19 
REMARK    6  A    between atoms: C_24  and  C_25 
REMARK    7  A    between atoms: C_34  and  C_35 
ROOT
HETATM    1  C   UNK N   1      -1.391  -2.610   0.046  0.00  0.00     0.037 A 
HETATM    2  C   UNK N   1      -3.858  -2.668   0.118  0.00  0.00     0.057 A 
HETATM    3  C   UNK N   1      -2.645  -1.992  -0.187  0.00  0.00     0.060 A 
HETATM    4  C   UNK N   1      -3.790  -3.984   0.648  0.00  0.00    -0.035 A 
HETATM    5  C   UNK N   1      -1.373  -3.902   0.588  0.00  0.00     0.030 A 
HETATM    6  C   UNK N   1      -2.547  -4.576   0.886  0.00  0.00     0.011 A 
HETATM    7  C   UNK N   1      -5.035  -4.769   0.974  0.00  0.00     0.050 C 
ENDROOT
BRANCH   1   8
HETATM    8  N   UNK N   1      -0.119  -2.014  -0.270  0.00  0.00    -0.323 N 
HETATM    9  C   UNK N   1       0.140  -0.713  -0.622  0.00  0.00     0.256 C 
HETATM   10  O   UNK N   1      -0.751   0.120  -0.637  0.00  0.00    -0.267 OA
HETATM   11  H   UNK N   1       0.686  -2.642  -0.167  0.00  0.00     0.169 HD
BRANCH   9  12
HETATM   12  C   UNK N   1       1.545  -0.271  -0.922  0.00  0.00     0.032 A 
HETATM   13  C   UNK N   1       2.567  -1.199  -1.226  0.00  0.00     0.017 A 
HETATM   14  C   UNK N   1       3.870  -0.770  -1.465  0.00  0.00     0.010 A 
HETATM   15  C   UNK N   1       4.196   0.587  -1.387  0.00  0.00    -0.030 A 
HETATM   16  C   UNK N   1       3.189   1.523  -1.108  0.00  0.00     0.010 A 
HETATM   17  C   UNK N   1       1.872   1.100  -0.891  0.00  0.00     0.017 A 
BRANCH  15  18
HETATM   18  C   UNK N   1       5.629   1.019  -1.582  0.00  0.00     0.311 C 
BRANCH  18  19
HETATM   19  N   UNK N   1       6.539   0.261  -0.696  0.00  0.00     0.096 N 
HETATM   20  C   UNK N   1       7.945   0.617  -0.966  0.00  0.00     0.303 C 
HETATM   21  C   UNK N   1       8.874  -0.271  -0.132  0.00  0.00     0.302 C 
HETATM   22  N   UNK N   1       8.573  -0.109   1.302  0.00  0.00     0.087 N 
HETATM   23  C   UNK N   1       7.165  -0.455   1.571  0.00  0.00     0.302 C 
HETATM   24  C   UNK N   1       9.470  -0.947   2.111  0.00  0.00     0.310 C 
HETATM   25  C   UNK N   1       6.241   0.443   0.740  0.00  0.00     0.303 C 
ENDBRANCH  18  19
ENDBRANCH  15  18
ENDBRANCH   9  12
ENDBRANCH   1   8
BRANCH   2  26
HETATM   26  N   UNK N   1      -5.145  -2.076  -0.136  0.00  0.00    -0.191 N 
HETATM   27  C   UNK N   1      -5.425  -0.686  -0.284  0.00  0.00     0.683 A 
HETATM   28  N   UNK N   1      -4.508   0.266   0.042  0.00  0.00    -0.191 N 
HETATM   29  N   UNK N   1      -6.662  -0.306  -0.701  0.00  0.00    -0.202 N 
HETATM   30  C   UNK N   1      -4.777   1.596  -0.085  0.00  0.00     0.062 A 
ATOM     31  HN  UNK N   1      -3.595  -0.025   0.390  1.00  0.00     0.184 HD
HETATM   32  C   UNK N   1      -6.047   1.987  -0.542  0.00  0.00     0.048 A 
HETATM   33  C   UNK N   1      -6.986   1.003  -0.837  0.00  0.00     0.108 A 
ATOM     34  HN  UNK N   1      -7.359  -1.019  -0.914  1.00  0.00     0.183 HD
HETATM   35  H   UNK N   1      -5.963  -2.699  -0.188  0.00  0.00     0.184 HD
BRANCH  30  36
HETATM   36  C   UNK N   1      -3.721   2.590   0.273  0.00  0.00     0.009 A 
HETATM   37  C   UNK N   1      -2.610   2.190   1.041  0.00  0.00     0.136 A 
HETATM   38  N   UNK N   1      -1.640   3.085   1.381  0.00  0.00    -0.246 N 
HETATM   39  C   UNK N   1      -1.706   4.384   0.978  0.00  0.00     0.122 A 
HETATM   40  C   UNK N   1      -2.780   4.827   0.208  0.00  0.00     0.021 A 
HETATM   41  C   UNK N   1      -3.791   3.935  -0.140  0.00  0.00     0.016 A 
BRANCH  38  42
HETATM   42  O   UNK N   1      -0.610   2.684   2.120  0.00  0.00    -0.284 OA
ATOM     43  HO  UNK N   1       0.066   3.308   2.356  1.00  0.00     0.245 HD
ENDBRANCH  38  42
ENDBRANCH  30  36
ENDBRANCH   2  26
TORSDOF 7
