REMARK  6 active torsions:
REMARK  status: ('A' for Active; 'I' for Inactive)
REMARK    1  A    between atoms: N_2  and  C_16 
REMARK       I    between atoms: N_4  and  C_23 
REMARK    2  A    between atoms: N_4  and  C_24 
REMARK    3  A    between atoms: N_5  and  C_25 
REMARK       I    between atoms: N_5  and  C_31 
REMARK    4  A    between atoms: C_16  and  C_17 
REMARK    5  A    between atoms: C_22  and  C_23 
REMARK    6  A    between atoms: C_32  and  C_33 
ROOT
HETATM    1  C   UNK N   1       1.217   2.553  -0.031  0.00  0.00     0.037 A 
HETATM    2  C   UNK N   1       3.685   2.538  -0.086  0.00  0.00     0.057 A 
HETATM    3  C   UNK N   1       2.451   1.892   0.191  0.00  0.00     0.060 A 
HETATM    4  C   UNK N   1       3.661   3.871  -0.576  0.00  0.00    -0.035 A 
HETATM    5  C   UNK N   1       1.243   3.862  -0.533  0.00  0.00     0.030 A 
HETATM    6  C   UNK N   1       2.439   4.509  -0.802  0.00  0.00     0.011 A 
HETATM    7  C   UNK N   1       4.932   4.626  -0.873  0.00  0.00     0.050 C 
ENDROOT
BRANCH   1   8
HETATM    8  N   UNK N   1      -0.075   1.984   0.250  0.00  0.00    -0.323 N 
HETATM    9  C   UNK N   1      -0.374   0.681   0.561  0.00  0.00     0.256 C 
HETATM   10  O   UNK N   1       0.498  -0.172   0.581  0.00  0.00    -0.267 OA
HETATM   11  H   UNK N   1      -0.862   2.634   0.147  0.00  0.00     0.169 HD
BRANCH   9  12
HETATM   12  C   UNK N   1      -1.796   0.261   0.806  0.00  0.00     0.032 A 
HETATM   13  C   UNK N   1      -2.812   1.202   1.091  0.00  0.00     0.017 A 
HETATM   14  C   UNK N   1      -4.131   0.791   1.271  0.00  0.00     0.010 A 
HETATM   15  C   UNK N   1      -4.477  -0.559   1.153  0.00  0.00    -0.030 A 
HETATM   16  C   UNK N   1      -3.476  -1.507   0.894  0.00  0.00     0.010 A 
HETATM   17  C   UNK N   1      -2.144  -1.103   0.735  0.00  0.00     0.017 A 
BRANCH  15  18
HETATM   18  C   UNK N   1      -5.923  -0.969   1.279  0.00  0.00     0.311 C 
BRANCH  18  19
HETATM   19  N   UNK N   1      -6.781  -0.181   0.368  0.00  0.00     0.096 N 
HETATM   20  C   UNK N   1      -8.203  -0.518   0.571  0.00  0.00     0.302 C 
HETATM   21  C   UNK N   1      -9.079   0.396  -0.294  0.00  0.00     0.299 C 
HETATM   22  N   UNK N   1      -8.716   0.246  -1.708  0.00  0.00     0.086 N 
HETATM   23  C   UNK N   1      -7.301   0.577  -1.911  0.00  0.00     0.299 C 
HETATM   24  H   UNK N   1      -9.301   0.901  -2.278  0.00  0.00     0.315 HD
HETATM   25  C   UNK N   1      -6.422  -0.344  -1.058  0.00  0.00     0.302 C 
ENDBRANCH  18  19
ENDBRANCH  15  18
ENDBRANCH   9  12
ENDBRANCH   1   8
BRANCH   2  26
HETATM   26  N   UNK N   1       4.952   1.898   0.155  0.00  0.00    -0.191 N 
HETATM   27  C   UNK N   1       5.190   0.496   0.266  0.00  0.00     0.683 A 
HETATM   28  N   UNK N   1       4.247  -0.420  -0.088  0.00  0.00    -0.191 N 
HETATM   29  N   UNK N   1       6.415   0.070   0.671  0.00  0.00    -0.202 N 
HETATM   30  C   UNK N   1       4.479  -1.761  -0.002  0.00  0.00     0.062 A 
ATOM     31  HN  UNK N   1       3.341  -0.094  -0.426  1.00  0.00     0.184 HD
HETATM   32  C   UNK N   1       5.739  -2.199   0.444  0.00  0.00     0.048 A 
HETATM   33  C   UNK N   1       6.703  -1.250   0.769  0.00  0.00     0.108 A 
ATOM     34  HN  UNK N   1       7.131   0.757   0.906  1.00  0.00     0.183 HD
HETATM   35  H   UNK N   1       5.788   2.494   0.227  0.00  0.00     0.184 HD
BRANCH  30  36
HETATM   36  C   UNK N   1       3.399  -2.717  -0.394  0.00  0.00     0.007 A 
HETATM   37  C   UNK N   1       2.290  -2.260  -1.128  0.00  0.00     0.016 A 
HETATM   38  C   UNK N   1       1.280  -3.147  -1.504  0.00  0.00     0.018 A 
HETATM   39  C   UNK N   1       1.373  -4.487  -1.135  0.00  0.00     0.087 A 
HETATM   40  N   UNK N   1       2.442  -4.924  -0.420  0.00  0.00    -0.374 N 
HETATM   41  C   UNK N   1       3.446  -4.086  -0.049  0.00  0.00     0.101 A 
ATOM     42  HN  UNK N   1       2.492  -5.907  -0.155  1.00  0.00     0.164 HD
ENDBRANCH  30  36
ENDBRANCH   2  26
TORSDOF 6
