REMARK  3 active torsions:
REMARK  status: ('A' for Active; 'I' for Inactive)
REMARK    1  A    between atoms: N_1  and  C_9 
REMARK       I    between atoms: N_1  and  C_15 
REMARK    2  A    between atoms: N_6  and  C_13 
REMARK    3  A    between atoms: C_17  and  C_18 
ROOT
HETATM    1  N   UNK N   1      -1.798  -1.657   0.073  0.00  0.00    -0.191 N 
HETATM    2  N   UNK N   1       0.498  -0.843   0.004  0.00  0.00    -0.191 N 
ATOM      3  HN  UNK N   1       0.144   0.099  -0.165  1.00  0.00     0.184 HD
HETATM    4  N   UNK N   1       0.076  -3.130   0.336  0.00  0.00    -0.202 N 
ATOM      5  HN  UNK N   1      -0.587  -3.900   0.423  1.00  0.00     0.183 HD
HETATM    6  C   UNK N   1      -0.389  -1.865   0.160  0.00  0.00     0.683 A 
HETATM    7  C   UNK N   1       1.845  -1.044   0.068  0.00  0.00     0.062 A 
HETATM    8  C   UNK N   1       2.322  -2.350   0.275  0.00  0.00     0.048 A 
HETATM    9  C   UNK N   1       1.405  -3.389   0.398  0.00  0.00     0.108 A 
HETATM   10  H   UNK N   1      -2.366  -2.511  -0.010  0.00  0.00     0.184 HD
ENDROOT
BRANCH   1  11
HETATM   11  C   UNK N   1      -2.475  -0.387   0.039  0.00  0.00     0.057 A 
HETATM   12  C   UNK N   1      -3.804  -0.314  -0.464  0.00  0.00    -0.035 A 
HETATM   13  C   UNK N   1      -4.473   0.919  -0.498  0.00  0.00     0.011 A 
HETATM   14  C   UNK N   1      -4.513  -1.539  -0.985  0.00  0.00     0.050 C 
HETATM   15  C   UNK N   1      -3.857   2.075  -0.027  0.00  0.00     0.029 A 
HETATM   16  C   UNK N   1      -2.561   2.021   0.490  0.00  0.00     0.027 A 
HETATM   17  C   UNK N   1      -1.871   0.799   0.522  0.00  0.00     0.059 A 
BRANCH  16  18
HETATM   18  N   UNK N   1      -1.950   3.198   0.990  0.00  0.00    -0.399 N 
HETATM   19  H   UNK N   1      -2.454   4.097   0.973  0.00  0.00     0.156 HD
HETATM   20  H   UNK N   1      -0.998   3.170   1.384  0.00  0.00     0.156 HD
ENDBRANCH  16  18
ENDBRANCH   1  11
BRANCH   7  21
HETATM   21  C   UNK N   1       2.768   0.118  -0.097  0.00  0.00     0.007 A 
HETATM   22  C   UNK N   1       2.291   1.321  -0.650  0.00  0.00     0.016 A 
HETATM   23  C   UNK N   1       3.151   2.407  -0.817  0.00  0.00     0.018 A 
HETATM   24  C   UNK N   1       4.481   2.297  -0.416  0.00  0.00     0.087 A 
HETATM   25  N   UNK N   1       4.935   1.138   0.127  0.00  0.00    -0.374 N 
HETATM   26  C   UNK N   1       4.125   0.058   0.289  0.00  0.00     0.101 A 
ATOM     27  HN  UNK N   1       5.910   1.076   0.420  1.00  0.00     0.164 HD
ENDBRANCH   7  21
TORSDOF 3
