REMARK  6 active torsions:
REMARK  status: ('A' for Active; 'I' for Inactive)
REMARK    1  A    between atoms: C5_3  and  C7_8 
REMARK       I    between atoms: C9_13  and  N13_16 
REMARK    2  A    between atoms: C14_17  and  N13_16 
REMARK    3  A    between atoms: C16_21  and  N21_23 
REMARK       I    between atoms: C22_24  and  N21_23 
REMARK    4  A    between atoms: C22_24  and  C23_25 
REMARK    5  A    between atoms: C27_28  and  C46_31 
REMARK    6  A    between atoms: C46_31  and  N48_32 
ROOT
HETATM    1  C14 STI A 600      15.346  12.271  17.710  1.00 42.83     0.057 A 
HETATM    2  C19 STI A 600      15.234  11.305  18.732  1.00 42.81    -0.035 A 
HETATM    3  C18 STI A 600      14.285  11.539  19.714  1.00 45.14     0.011 A 
HETATM    4  C17 STI A 600      13.451  12.699  19.699  1.00 42.64     0.030 A 
HETATM    5  C16 STI A 600      13.560  13.633  18.698  1.00 41.64     0.037 A 
HETATM    6  C15 STI A 600      14.506  13.401  17.688  1.00 40.75     0.060 A 
HETATM    7  C20 STI A 600      16.075  10.053  18.815  1.00 40.20     0.050 C 
ENDROOT
BRANCH   5   8
HETATM    8  N21 STI A 600      12.659  14.735  18.814  1.00 40.36    -0.323 N 
HETATM    9  C22 STI A 600      12.589  15.682  17.851  1.00 38.78     0.256 C 
HETATM   10  O29 STI A 600      13.399  15.803  16.931  1.00 40.62    -0.267 OA
HETATM   11  H21 STI A 600      12.065  14.808  19.628  1.00  0.00     0.169 HD
BRANCH   9  12
HETATM   12  C23 STI A 600      11.455  16.642  17.900  1.00 36.59     0.032 A 
HETATM   13  C25 STI A 600      11.079  17.330  16.713  1.00 34.88     0.017 A 
HETATM   14  C26 STI A 600      10.006  18.285  16.678  1.00 33.94     0.010 A 
HETATM   15  C27 STI A 600       9.298  18.536  17.869  1.00 35.29    -0.033 A 
HETATM   16  C28 STI A 600       9.662  17.854  19.065  1.00 35.22     0.010 A 
HETATM   17  C29 STI A 600      10.736  16.908  19.112  1.00 34.82     0.017 A 
BRANCH  15  18
HETATM   18  C46 STI A 600       8.196  19.529  17.832  1.00 34.30     0.273 C 
BRANCH  18  19
HETATM   19  N48 STI A 600       8.191  20.406  18.988  1.00 33.42    -0.064 N 
HETATM   20  C49 STI A 600       6.952  21.230  19.053  1.00 30.94     0.263 C 
HETATM   21  C50 STI A 600       6.928  22.029  20.380  1.00 32.11     0.262 C 
HETATM   22  N51 STI A 600       8.150  22.812  20.447  1.00 35.38    -0.072 N 
HETATM   23  C52 STI A 600       9.448  22.049  20.402  1.00 31.38     0.262 C 
HETATM   24  C54 STI A 600       8.183  23.619  21.640  1.00 32.34     0.269 C 
HETATM   25  H51 STI A 600       8.146  23.443  19.658  1.00  0.00     0.279 HD
HETATM   26  C53 STI A 600       9.455  21.152  19.106  1.00 26.21     0.263 C 
HETATM   27  H48 STI A 600       8.157  19.797  19.793  1.00  0.00     0.280 HD
ENDBRANCH  18  19
ENDBRANCH  15  18
ENDBRANCH   9  12
ENDBRANCH   5   8
BRANCH   1  28
HETATM   28  N13 STI A 600      16.254  12.125  16.695  1.00 40.09    -0.191 N 
HETATM   29  C9  STI A 600      17.593  12.383  16.962  1.00 38.62     0.683 A 
HETATM   30  N8  STI A 600      18.433  12.021  15.977  1.00 39.94    -0.191 N 
HETATM   31  N10 STI A 600      18.047  12.944  18.070  1.00 39.49    -0.202 N 
HETATM   32  C7  STI A 600      19.778  12.261  16.119  1.00 38.16     0.062 A 
ATOM     33  H8  STI A 600      18.076  11.573  15.133  1.00  0.00     0.184 HD
HETATM   34  C12 STI A 600      20.266  12.828  17.228  1.00 38.07     0.048 A 
HETATM   35  C11 STI A 600      19.347  13.177  18.235  1.00 38.38     0.108 A 
ATOM     36  H10 STI A 600      17.392  13.202  18.808  1.00  0.00     0.183 HD
HETATM   37  H13 STI A 600      15.957  11.836  15.774  1.00  0.00     0.184 HD
BRANCH  32  38
HETATM   38  C5  STI A 600      20.668  11.809  14.959  1.00 40.15     0.007 A 
HETATM   39  C4  STI A 600      20.140  11.001  13.947  1.00 38.69     0.101 A 
HETATM   40  N3  STI A 600      20.892  10.570  12.904  1.00 38.16    -0.374 N 
HETATM   41  C2  STI A 600      22.176  10.931  12.842  1.00 37.87     0.087 A 
ATOM     42  H3  STI A 600      20.484   9.980  12.179  1.00  0.00     0.164 HD
HETATM   43  C1  STI A 600      22.827  11.725  13.780  1.00 37.27     0.018 A 
HETATM   44  C6  STI A 600      22.036  12.177  14.839  1.00 39.60     0.016 A 
ENDBRANCH  32  38
ENDBRANCH   1  28
TORSDOF 6
